232

 C         6.1511624739       -6.9119912950       -3.3935147964
 C         4.8169996060       -6.6816496312       -2.7339159745
 O         3.8491379852       -6.9912752852       -3.4389617465
 C         4.8232820534       -5.9073180847       -1.3160254876
 C         3.5744860759       -6.3120802672       -0.4013893287
 O         2.9774568131       -7.3312013846       -0.6628140874
 C         3.2808728812       -5.4553465565        0.8427058904
 C         1.9522848255       -5.8565125346        1.5920769534
 C         2.2341456785       -7.2510589817        2.1550966717
 O         3.3059197155       -7.5360767632        2.5564301257
 C         1.1307250687       -8.4399582506        2.0004238364
 C         1.2822458609       -9.0424840515        0.5852101596
 O         0.7157199244       -8.5354100171       -0.3623052337
 C         2.3304599702      -10.2004462127        0.2820945538
 C         1.6512892004      -11.4097003539       -0.4034783025
 C         1.5805885102      -11.3256382836       -1.8964768227
 O         2.2867541541      -10.6759315760       -2.6212481482
 C         0.6226680722      -12.4603746564       -2.5845075954
 C        -0.3362122102      -11.5807172951       -3.5648669175
 O        -1.5206992836      -11.5847474522       -3.4430389945
 C         0.3697618593      -10.8903729048       -4.6798507194
 C        -0.3337949865       -9.6992038494       -5.3422374497
 C        -0.4910661386       -8.4766168113       -4.4832004525
 O         0.2539652856       -8.2437129931       -3.5019419802
 C        -1.6642858172       -7.5290339995       -4.7744942315
 C        -1.4660293910       -6.9461710745       -6.2689853387
 O        -0.5646101523       -7.3358956623       -6.9818707743
 C        -2.1417597863       -5.5981241367       -6.6677029455
 C        -1.5334912238       -5.1260120326       -8.0187052106
 C        -1.7174827188       -3.5743884410       -8.2456572866
 O        -2.5458891852       -3.0415146313       -7.5704164692
 C        -0.7403223439       -2.7000003721       -9.2869166474
 C         0.4501264162       -2.0392037594       -8.2996363488
 O         1.5914479230       -2.1106727648       -8.5746984413
 C        -0.1766668448       -1.5042658617       -6.9106762675
 C         0.5753786648       -0.3421411388       -6.2203205535
 C        -0.0505560632        1.0309933955       -6.7719709941
 O        -0.8006486097        0.9138452093       -7.7194269566
 C         0.3375664590        2.3372023064       -6.1274113013
 C        -0.0493692798        3.6034773090       -7.1058449921
 O         0.5851212896        4.6329480818       -7.1980366124
 C        -1.3552898552        3.5484056589       -7.8799367405
 C        -1.8796731206        4.9518342384       -8.2053403515
 C        -3.1388885254        5.1208050202       -9.0173909333
 O        -3.8977419684        4.2132583953       -9.3990942375
 C        -3.5736498516        6.5523060663       -9.4081963653
 C        -4.8349697932        6.4859787073      -10.4014544994
 O        -5.7316713285        7.2878836236      -10.3250858528
 C        -4.6843018562        5.6663919473      -11.7754304537
 C        -5.4387712121        6.4886673369      -12.8864123621
 C        -5.4947665744        5.7247991190      -14.2120616584
 O        -5.8500215902        4.5681334560      -14.1634213067
 C        -5.8235364881        6.5393028215      -15.4997449912
 C        -4.7779186939        5.9444044244      -16.5833995768
 O        -4.9874783300        4.9070855086      -17.1885460855
 C        -3.3201502249        6.5674989874      -16.7303479315
 C        -2.4267239892        5.7828560003      -17.6485106095
 C        -2.4771599232        4.2603423733      -17.2656706743
 O        -2.3664581063        3.8832233808      -16.0841862335
 C        -2.7855635287        3.2170779251      -18.4384858651
 C        -3.6039364835        2.0717794173      -17.7031713644
 O        -4.8139643261        2.1456809884      -17.7829914851
 C        -2.9139789246        1.0236654664      -16.7476277176
 C        -3.7123500787        0.7548644905      -15.4152233378
 C        -4.9853511665       -0.1116934506      -15.5182362341
 O        -5.1037251433       -0.8108874681      -16.5599139749
 C        -6.1158911993       -0.0990079794      -14.4921130223
 C        -7.6041068533        0.4505499648      -15.0175250018
 O        -7.9957564520        1.4161806052      -14.4538500754
 C        -8.2765916241       -0.1410510847      -16.2095332885
 C        -8.1721568701        0.9375868485      -17.3058562338
 C        -9.1328736933        2.1488773554      -16.9160782884
 O        -8.6589119454        3.1287154173      -16.3972477616
 C       -10.7445218111        2.0861792838      -17.3307118510
 C       -11.0036789412        1.3919668679      -18.7645663471
 O       -10.1615807071        0.8579199232      -19.4350122226
 C       -12.5887559056        1.2330781161      -19.0128900855
 C       -13.0140870032        1.2507694996      -20.4633638358
 C       -14.2609299825        0.2668383298      -20.6333152142
 O       -14.6947917167       -0.3035321125      -19.6645528107
 C       -14.8658416452        0.1083754420      -22.0263616095
 C       -15.2584425553        1.4564626970      -22.6478005160
 O       -14.7394082113        1.9428772315      -23.5873838875
 C       -16.4665221568        2.1069630944      -21.9914607686
 C       -13.7738858385       -0.4452419226      -22.9156536240
 C       -16.0579561944       -0.9366231974      -21.8812051646
 C       -11.4658773385        1.2616615475      -16.1636501691
 C       -11.2747031294        3.4643843524      -17.4178858963
 C        -6.3292923332       -1.6744899635      -14.1689096837
 C        -5.7678244242        0.7067748959      -13.2593930350
 C        -3.6281693258        3.7900662180      -19.5406252491
 C        -1.3792057633        2.7575198820      -19.0824005346
 C        -7.3515417057        6.2091450207      -15.9771818736
 C        -5.5671893712        8.1051653779      -15.2971829176
 C        -4.1224591743        7.1487586583       -8.0944826681
 C        -2.3190129457        7.2754567024      -10.0064629633
 C        -0.4481793263        2.6827142442       -4.7552439660
 C         1.8304876010        2.1991076168       -5.8650630697
 C        -0.0464600415       -3.5852777277      -10.3266863405
 C        -1.4436868331       -1.5550906773       -9.8793566260
 C        -3.0451629135       -8.0961758169       -4.3463591289
 C        -1.5214928507       -6.2851208247       -3.8848970317
 C         1.5295414906      -13.3380329004       -3.4142464154
 C        -0.2591526798      -13.3142687865       -1.6055963442
 C         1.5029659112       -9.5455061407        3.1013771830
 C        -0.3130261386       -7.9006967093        2.1500430037
 C         6.1148078036       -6.0854544010       -0.4876018865
 C         4.5091604272       -4.3957408704       -1.7558943335
 H         6.5529004067       -7.9312462075       -3.2273167619
 H         7.0404696486       -6.3633848458       -3.0673298003
 H         6.0329275081       -6.7700344580       -4.4172098287
 H         3.1805697606       -4.3740349450        0.4809907943
 H         4.2116026880       -5.4627022774        1.5025345243
 H         1.1977897016       -5.9315187401        0.7442775745
 H         1.5953976375       -5.1256532875        2.4224078763
 H         3.0030516225      -10.5620651550        1.1668016227
 H         3.2113582479       -9.8350075316       -0.3061041680
 H         0.7240656882      -11.6001801417        0.1378414163
 H         2.2627651889      -12.2527710552       -0.3168412172
 H         0.5867501315      -11.6309744857       -5.4981005936
 H         1.3385791403      -10.6751930672       -4.2832616251
 H        -1.3904263856      -10.0098112416       -5.5489141787
 H         0.0857356640       -9.5005488443       -6.3395403699
 H        -1.9498508700       -4.8724469978       -5.9392326231
 H        -3.2380713040       -5.8616792193       -6.8099598151
 H        -1.9747577911       -5.4717212679       -8.8957935204
 H        -0.4422266008       -5.4249059619       -7.9976131786
 H        -0.2787192017       -2.3829043143       -6.1851781507
 H        -1.1794194052       -1.1431695355       -7.1385698549
 H         1.6575139410       -0.3331144045       -6.5127423661
 H         0.5492560117       -0.4276817318       -5.1264479896
 H        -2.0918737175        2.9844128101       -7.2781507172
 H        -1.0473949667        2.9785799633       -8.6913861782
 H        -1.0782615557        5.5496409970       -8.6567009540
 H        -2.0451705404        5.5197089380       -7.2888470351
 H        -5.3096286929        4.7722954399      -11.6637399006
 H        -3.6568507670        5.4667551994      -12.1216268388
 H        -5.0321602487        7.4842117404      -13.0083454518
 H        -6.5316612991        6.6475889727      -12.7386391806
 H        -2.7001422598        6.5308956138      -15.8375572401
 H        -3.4748081197        7.6180315158      -17.0632205180
 H        -1.3270834789        6.1242462820      -17.5686575362
 H        -2.6796738250        5.7857028644      -18.6796102064
 H        -2.0134031764        1.5322551135      -16.4282628201
 H        -2.7587562166        0.1318995409      -17.3494654924
 H        -4.0587219194        1.7407615289      -15.0612121803
 H        -3.0666074459        0.1990391271      -14.7175719314
 H        -9.2539421281       -0.3577282951      -15.9559899305
 H        -7.7935264936       -1.0245791636      -16.6395723623
 H        -8.4545296155        0.5407093597      -18.2300932008
 H        -7.1648122306        1.3597174149      -17.3295256958
 H       -13.1727544995        1.9997981253      -18.4400400190
 H       -12.8607598795        0.2434138544      -18.6146381549
 H       -12.1486919198        0.8593323222      -21.0505380154
 H       -13.2468484362        2.1546079303      -20.8887149558
 H       -17.2602159509        1.9170724617      -22.6477082604
 H       -16.3037209396        3.2514329926      -21.9923852321
 H       -16.6888282176        1.9422718629      -20.9271165678
 H       -13.2763192417       -1.2854386117      -22.3539952862
 H       -13.0917843666        0.3130362202      -23.2868538370
 H       -14.1156080478       -0.9696039716      -23.8184824928
 H       -16.8123139875       -0.6590191971      -21.1318415810
 H       -15.7381829888       -1.9019257597      -21.5228560936
 H       -16.4864411508       -1.0931513845      -22.8097572693
 H       -12.5511124984        1.5844597260      -16.0807057943
 H       -10.8284407942        1.4593927996      -15.2922851907
 H       -11.4567798012        0.1583360601      -16.3353978644
 H       -11.1960759894        3.9534898057      -18.3616193288
 H       -10.9874226055        4.0878604484      -16.6084529412
 H       -12.3663220335        3.4125471204      -17.4318448280
 H        -6.8798063868       -2.1215176367      -14.9550933081
 H        -6.9804877821       -1.8503894470      -13.3007342602
 H        -5.4423030384       -2.2758576887      -14.0368151737
 H        -5.0354921362        0.2473956345      -12.6744881290
 H        -6.7003495415        0.8970567060      -12.6826193908
 H        -5.4144718482        1.6735195161      -13.7608408400
 H        -3.0767278897        4.3420300773      -20.3865945053
 H        -4.3784539791        4.5385293363      -19.1625645366
 H        -4.2015001826        2.9987736494      -20.0787061108
 H        -0.8899542391        3.5990393338      -19.5207375554
 H        -1.5963649670        2.1543624290      -20.0215154809
 H        -0.6810739296        2.3253699856      -18.3685015723
 H        -8.0299379380        6.8094675028      -15.4449059461
 H        -7.6606511643        5.2010547224      -15.6906458638
 H        -7.4544188165        6.4274237241      -17.0563691860
 H        -4.5743993385        8.4573513097      -14.9793882149
 H        -6.2746355556        8.4506914656      -14.5694987403
 H        -5.9035961470        8.5975305454      -16.2020195737
 H        -3.5123352480        7.0344913567       -7.2332042816
 H        -5.0172825317        6.5724325049       -7.9405374668
 H        -4.3028973754        8.2416132828       -8.1811553706
 H        -1.4337272727        7.2320866857       -9.3740713847
 H        -2.5505536539        8.3862077640       -9.9539805015
 H        -2.0942442177        6.9526205796      -11.0152455080
 H        -1.2357490654        3.2592608700       -5.1182497668
 H         0.2255006851        3.3674865319       -4.2143183051
 H        -0.7085004156        1.7798985915       -4.1857684446
 H         2.3136800765        3.1593480345       -5.9060410512
 H         2.2182342717        1.6106990285       -6.6190230863
 H         2.0060337202        1.6494040444       -4.8975979821
 H        -0.5978912359       -3.5634364977      -11.2480034395
 H        -0.1006004965       -4.6993502671      -10.0429305568
 H         1.0623112389       -3.3895860201      -10.4764720943
 H        -2.4157300396       -1.8380653070      -10.2615825496
 H        -0.9990047670       -1.0162651625      -10.6548949937
 H        -1.8043096251       -0.8921045033       -9.0561499141
 H        -2.8279944699       -8.6053793209       -3.4698052865
 H        -3.4207710740       -8.9118711976       -4.9596116736
 H        -3.7922635863       -7.2915720353       -4.1503970119
 H        -0.5701934080       -5.7827479279       -4.0707047767
 H        -1.4641391062       -6.4807248157       -2.8550213583
 H        -2.3444363918       -5.5323776230       -3.9267645877
 H         2.2126949035      -12.7312238295       -3.9669336887
 H         1.1557092931      -14.0205219740       -4.1167458687
 H         2.2279099341      -13.8907538353       -2.6852443437
 H        -1.0567546079      -13.7814619152       -2.1484905403
 H        -0.6469546957      -12.7673118165       -0.7954540340
 H         0.2564774423      -14.2890027941       -1.3055283911
 H         0.9898601008       -9.2506522307        4.0127061322
 H         2.5189550364       -9.6897405914        3.1493671883
 H         1.0195484236      -10.4469548569        2.7907480751
 H        -0.5863229658       -7.9174000368        3.2344471083
 H        -1.1233640704       -8.3833677477        1.5811952777
 H        -0.4741366829       -6.8154473882        1.9024591177
 H         6.9423387710       -5.9725122597       -1.1333025338
 H         6.2875126781       -7.0178509681        0.0836076778
 H         6.1281643627       -5.2111613204        0.2086773878
 H         4.9638248500       -3.7482022148       -1.0045134496
 H         3.4268367940       -4.3290825149       -1.7943304766
 H         4.8086368550       -4.3179073487       -2.7505976187
 Na        2.0787653082       -8.3520694079       -2.4073454860
 Na       -6.1874447539        3.1149204327      -16.2128550892
