232

 C       -19.4178007010      -11.8502824274        0.9374045498
 C       -18.2315536634      -12.0111620950       -0.0221761507
 O       -18.0850286844      -11.1631867067       -0.9300485089
 C       -17.3863405156      -13.3202159773       -0.0583143746
 C       -15.9939953187      -12.9594360868       -0.6345591841
 O       -15.8324094776      -13.1613001363       -1.8222227109
 C       -14.8545985123      -12.5647282023        0.3327197329
 C       -13.6219162482      -12.1614325700       -0.4729974558
 C       -13.7139818161      -10.7564561937       -1.0326117865
 O       -14.4914604889       -9.9506652491       -0.6186076468
 C       -12.7047483216      -10.3675184864       -2.1100769761
 C       -13.4582680867      -10.6902558414       -3.4514368768
 O       -14.0910573493      -11.7108361604       -3.6565955046
 C       -13.3760995316       -9.6271101823       -4.5777049413
 C       -14.0838980775      -10.1804090869       -5.8056745811
 C       -15.5701761201       -9.7614883722       -5.6859109627
 O       -16.3156623476      -10.1466891696       -4.8608043415
 C       -16.1314215561       -8.8413255265       -6.9018650296
 C       -15.2478036852       -7.5341600769       -7.0582911285
 O       -14.5916612763       -7.1471306376       -6.1049244185
 C       -15.3593071611       -6.8117679793       -8.3503768810
 C       -14.0883343599       -6.1009359835       -8.7996565476
 C       -14.3384683065       -5.4779849379      -10.1280734667
 O       -15.4750813816       -5.4057930636      -10.5296784805
 C       -13.0297087151       -4.9412950591      -10.9278704381
 C       -12.1428281907       -3.9823048996      -10.1147554922
 O       -11.8214561589       -4.3935149351       -8.9767085513
 C       -11.9267721907       -2.5331182156      -10.5851373012
 C       -11.2095145228       -1.7279277480       -9.4171735287
 C       -10.3106997371       -0.4824044686       -9.7837310121
 O       -10.1386384952       -0.2881905217      -10.9879780044
 C        -9.5684125109        0.3335389824       -8.6468540121
 C        -8.0079268496        0.2262135103       -9.0077880143
 O        -7.3331384068       -0.5116226205       -8.3594896164
 C        -7.4607039718        1.1687956368      -10.0926475315
 C        -6.1917877839        0.6134679143      -10.8018890744
 C        -4.9869918277        1.5314091544      -10.9286856677
 O        -5.0153646352        2.5931722753      -10.3558331046
 C        -3.6798303136        1.0899369155      -11.8546901070
 C        -2.7163438001        0.5201904217      -10.8208487182
 O        -2.3651086172       -0.6486415940      -10.8529493146
 C        -1.8491353693        1.4850919431       -9.8553769131
 C        -0.4924233945        0.8285760453       -9.7675531583
 C         0.2190715002        1.2245385820       -8.5092957033
 O        -0.1071821951        2.2109214273       -7.8210516994
 C         1.6358878409        0.5766818119       -8.0886413376
 C         2.7474562830        1.5620279773       -8.4451924421
 O         3.3987589965        1.3308160379       -9.4441729230
 C         2.9190547362        2.7758444457       -7.5190947496
 C         4.0011167021        3.7377486800       -7.9461319489
 C         3.5720635808        4.5931719079       -9.1060164353
 O         2.3698507119        4.9084388742       -9.2141725336
 C         4.6699321650        5.1390545964      -10.1219249444
 C         4.4106275819        4.7849459795      -11.5267512669
 O         5.0851524888        3.8901641986      -12.0941025418
 C         3.2194157959        5.5439376601      -12.2967382938
 C         3.8484780903        6.6868503125      -13.1378651994
 C         4.1347537743        6.1387724048      -14.5670662240
 O         4.7486160774        5.0979886846      -14.6636220755
 C         3.8482389983        7.0623266372      -15.7849428480
 C         5.2871347304        7.3535114730      -16.5222796928
 O         5.3434177019        7.0562362264      -17.7273634537
 C         6.5510105571        7.7276610152      -15.6906107005
 C         7.9313472014        7.1403561833      -16.1062520471
 C         7.9111022307        5.5381308541      -16.1092921390
 O         7.6611499316        5.0210036162      -15.0067990558
 C         8.0014884809        4.7431723541      -17.4817878543
 C         9.3957517519        3.7864042349      -17.3085922669
 O         9.9226174529        3.4989709597      -16.2323692462
 C         9.7682529664        3.0632521876      -18.6202300577
 C        10.7597732315        1.9114054713      -18.5269456026
 C        10.1193163501        0.7115698835      -17.7030445613
 O         8.9200043931        0.6598513822      -17.6004942568
 C        10.9920178405       -0.4374523402      -17.0416830738
 C        10.7561321990       -0.4890052315      -15.4906309772
 O        11.7182055685       -0.5217370553      -14.7272220273
 C         9.2718212622       -0.7977025543      -15.0348962274
 C         8.9802882396       -0.1955070851      -13.6387224346
 C         7.7433423789        0.5710511658      -13.6543277787
 O         7.8236212511        1.7991518945      -13.6728710055
 C         6.3315490250        0.0200786038      -13.7886570806
 C         5.5045258386        0.7226542866      -15.0926974600
 O         4.9760504968        1.8197197454      -14.9932964950
 C         5.2623793393       -0.1721565545      -16.3306028844
 C         6.2418898550       -1.5029476290      -13.8478379199
 C         5.5228989513        0.5216906934      -12.5633279586
 C        10.6605860403       -1.7502460381      -17.7196518597
 C        12.5017699503       -0.0984131325      -17.2196078581
 C         6.8800738211        3.6904881976      -17.4978612987
 C         7.9619675430        5.6362006433      -18.7358831467
 C         2.8535892684        6.4372123977      -16.9276453987
 C         3.2823423012        8.4159886290      -15.4104891682
 C         4.5798764914        6.5882110372       -9.9230519814
 C         6.1434774659        4.7292061330       -9.7718292790
 C         1.3470438515        0.1945346872       -6.5968184345
 C         1.8553313439       -0.7188278713       -8.9036469643
 C        -4.0746999901        0.1953657407      -12.9511330009
 C        -3.0253515738        2.3034911885      -12.5478310922
 C       -10.1116339370        1.7456496097       -8.6007895061
 C        -9.8816966143       -0.4449900218       -7.4356240309
 C       -12.0885420820       -6.2098011333      -11.3566484058
 C       -13.5596616337       -4.3027346885      -12.1882612582
 C       -15.9765615917       -9.6852550812       -8.2333488978
 C       -17.6423979546       -8.3511889136       -6.7405104927
 C       -12.5419319118       -8.8322960944       -1.9320470300
 C       -11.3478989325      -10.9646659350       -2.0624134445
 C       -17.2525533485      -13.9152026120        1.3346833222
 C       -18.2078568847      -14.2793856899       -0.9409001535
 H       -19.0394535537      -11.8603891125        1.9760438202
 H       -20.0864428778      -12.6526709753        0.7597046991
 H       -19.9245118809      -10.9067279349        0.7075998818
 H       -14.6595775329      -13.4781479671        0.9386207132
 H       -15.2518765826      -11.7101200310        0.8848296562
 H       -13.4992871144      -12.9452113695       -1.2201504392
 H       -12.6538209272      -12.1950599313        0.1152442096
 H       -12.3418070202       -9.3920616781       -4.9145431811
 H       -13.8215607824       -8.7054291130       -4.2755897700
 H       -13.8966431463      -11.2647175632       -5.9623307299
 H       -13.5275734232       -9.6546867922       -6.5654042599
 H       -16.0822023575       -6.0402041464       -8.1444604242
 H       -15.7764698260       -7.4193952496       -9.2046377572
 H       -13.2692527969       -6.8408593794       -8.9552516849
 H       -13.7345452493       -5.3770113394       -8.1263514817
 H       -12.8357888691       -2.0204683059      -10.7444726216
 H       -11.2985217957       -2.4935340376      -11.4412298363
 H       -10.7099089518       -2.5576772296       -8.9154715132
 H       -11.9373562705       -1.3917066240       -8.6391693099
 H        -7.3541262789        2.0841586059       -9.5784943993
 H        -8.2450679234        1.3594690697      -10.7861925268
 H        -6.5641967788        0.0784173132      -11.7596483879
 H        -5.8119038486       -0.2556058917      -10.2166570249
 H        -2.3155599878        1.4546125952       -8.9407553056
 H        -1.9442907975        2.5479304779      -10.3135244243
 H         0.1722589688        1.1714200823      -10.5777741981
 H        -0.4742282554       -0.3111074572       -9.7466203231
 H         2.9631602955        2.4134832363       -6.5259221578
 H         2.0000481676        3.2569164421       -7.5096366524
 H         4.9802504935        3.3227869105       -8.0609377770
 H         4.0951425636        4.5748777139       -7.1729953820
 H         2.3941584018        5.9539927591      -11.6632402837
 H         2.6561734039        4.9361910295      -12.9388927882
 H         4.8565212704        7.0031434057      -12.7294160529
 H         3.2328808830        7.5791355578      -13.1418368869
 H         6.4091501677        7.4625097947      -14.6331835917
 H         6.5684647218        8.8198044223      -15.6864038147
 H         8.7383313491        7.2960068918      -15.3529734419
 H         8.2582871062        7.5346141495      -17.0268097097
 H        10.1304291359        3.8083807176      -19.3743077744
 H         8.7775733287        2.7740301385      -18.8881966263
 H        11.6412471626        2.3333553213      -18.0819323508
 H        11.0687162938        1.4671356231      -19.5594817858
 H         9.0437573432       -1.8309130086      -14.9421839082
 H         8.6262740097       -0.2862519127      -15.7558513238
 H         9.8524849660        0.5341905127      -13.4651556875
 H         9.0296948332       -0.9021838978      -12.8823324063
 H         6.1328633638       -0.8761495397      -16.3991645455
 H         5.0833319232        0.2946526770      -17.2693784592
 H         4.5231991495       -0.8758063824      -16.1680844884
 H         5.2067626603       -1.8421424886      -14.0027612512
 H         6.6196857948       -2.0040123387      -12.9013205045
 H         6.8076847513       -1.8569156113      -14.7387782140
 H         6.0874434622        0.4941067436      -11.7001434107
 H         4.7115412800       -0.0660552192      -12.2933527712
 H         5.1629021497        1.5547438303      -12.5439235264
 H        11.0290577109       -1.6003674998      -18.7613696180
 H         9.5805002955       -2.0266249700      -17.7257525745
 H        11.2115329244       -2.4783475326      -17.1688147227
 H        12.8048366998       -0.1185390653      -18.2416447894
 H        13.0838486560       -0.9154950720      -16.8281134694
 H        12.7398800093        0.7839433539      -16.6574907350
 H         6.9338970224        3.1676960985      -16.4752644498
 H         6.9984637633        3.0171903355      -18.3090968841
 H         5.8288637264        4.0608223348      -17.5580215140
 H         8.7513014533        6.4208335251      -18.6746298520
 H         7.0017292857        6.1790794450      -18.9172546087
 H         8.2666297148        5.1286908055      -19.7036548469
 H         1.8757842910        6.1113285117      -16.5518615041
 H         3.3073997402        5.4806495535      -17.1402188968
 H         2.8152200410        7.0331236664      -17.8489051590
 H         3.3609822583        9.1967914049      -16.1795362845
 H         3.8186928584        8.8765626389      -14.5908518375
 H         2.2914885496        8.3025910664      -15.0215199622
 H         4.8430441793        6.9827134002       -8.9437418905
 H         3.6356070068        7.0432006440      -10.2027808460
 H         5.3537224380        7.1301355536      -10.5548325077
 H         6.7304316627        5.2465744415      -10.5025742321
 H         6.1891988333        3.5998972454       -9.6779530589
 H         6.3196391250        5.1496306561       -8.7579560603
 H         1.4864490443        0.9442547850       -5.8706596824
 H         2.1574671896       -0.4415766656       -6.4391169894
 H         0.4682348400       -0.3562112654       -6.5155030838
 H         0.9753197600       -1.2873344748       -8.9996270280
 H         2.7790570142       -1.1974897904       -8.5210099020
 H         2.1065756239       -0.5096450942       -9.9332386598
 H        -4.2248462207       -0.8203628180      -12.5324718889
 H        -3.2658581083        0.1372479615      -13.6765411587
 H        -5.0990804186        0.2860259004      -13.4683003571
 H        -2.1514232036        1.9478889231      -13.0847148869
 H        -2.8320268756        3.1499671574      -11.8695035300
 H        -3.6207084506        2.7435757113      -13.3119247425
 H       -11.2104292932        1.8731915635       -8.3988332544
 H        -9.9722465653        2.1256378528       -9.6177693302
 H        -9.5206423746        2.2302290802       -7.8697109763
 H       -10.8964910054       -0.6892974364       -7.2169972224
 H        -9.6397530648        0.0830617111       -6.5019195136
 H        -9.2766983088       -1.3778208717       -7.4113965519
 H       -11.2069146705       -5.6705845030      -11.6184406710
 H       -12.4426527205       -6.7060071582      -12.2057200739
 H       -11.8927318007       -6.8100214011      -10.4990864597
 H       -13.8671807976       -5.0114198523      -12.9402219743
 H       -12.7125369340       -3.8377689841      -12.6608780060
 H       -14.3659338227       -3.5098687064      -11.9484625629
 H       -14.9050602280       -9.6329021784       -8.5708579364
 H       -16.6388473662       -9.1885683320       -8.9816441274
 H       -16.1921324192      -10.7016794655       -7.9827364481
 H       -17.5915781837       -7.6161355547       -5.9327588751
 H       -18.3222532656       -9.1499609423       -6.5133042787
 H       -17.9164346586       -7.8342371644       -7.6392243570
 H       -13.4261310406       -8.3476033560       -2.2563226536
 H       -11.7103720151       -8.5100002046       -2.6005067957
 H       -12.1820789958       -8.5883325433       -0.9117248883
 H       -11.3126076505      -12.0851741646       -2.0414524416
 H       -10.6425557737      -10.6435238547       -1.2191836330
 H       -10.7035324728      -10.6759182060       -2.8529657659
 H       -16.9437113589      -13.1272022855        2.0368561147
 H       -16.5120300505      -14.7505153169        1.4211352499
 H       -18.2117464404      -14.4842168728        1.5078149355
 H       -17.7446990340      -14.2498978298       -1.9884378497
 H       -19.2158484519      -13.8620246574       -1.0786226692
 H       -18.2334865275      -15.3161128433       -0.6629560076
 Na      -16.6571342535      -11.5076704636       -3.0076930832
 Na        6.3639096615        3.2376741489      -14.2619353627
