232

 C         6.0570450915       -6.6627539533       -3.6586233277
 C         4.8454870038       -6.5140688079       -2.8268230298
 O         3.7379051955       -6.8660193765       -3.2178425630
 C         4.9575026552       -5.6810638917       -1.4404708154
 C         3.8428649046       -6.1935906659       -0.5362303193
 O         3.4883214377       -7.3406200424       -0.7325476444
 C         3.2136726697       -5.4087486786        0.6444913048
 C         2.0095633257       -6.1879687444        1.3411382235
 C         2.3646898807       -7.5028273821        1.9536792849
 O         3.3586877881       -7.8737042363        2.5312720771
 C         1.1202174455       -8.5135170863        1.9316775123
 C         1.3894119200       -9.0994151122        0.4556879378
 O         0.8501745248       -8.6797022926       -0.5441713562
 C         2.4760667084      -10.1729611581        0.2686809127
 C         1.8115906539      -11.4807044423       -0.2311434537
 C         1.6687719962      -11.4942741808       -1.8000930277
 O         2.4707523038      -10.8389752631       -2.4418059248
 C         0.5225376240      -12.3433322457       -2.5372909309
 C        -0.3598658422      -11.3841525294       -3.5347456459
 O        -1.4352805141      -11.0945578660       -3.1439128051
 C         0.1143952307      -10.8425764145       -4.8693831925
 C        -0.7910517446       -9.7205588552       -5.2571818760
 C        -0.5882990965       -8.4036468494       -4.5481038354
 O         0.4125442141       -8.0818295351       -3.8762681414
 C        -1.6017658926       -7.2585686097       -4.8944138760
 C        -1.1327410623       -6.6862753902       -6.3259804046
 O        -0.2865768305       -7.2549791365       -6.9830820266
 C        -2.0344236759       -5.5631106773       -6.8807994173
 C        -1.3463923110       -5.0769460764       -8.1868767467
 C        -1.7121485626       -3.5412872300       -8.4060043346
 O        -2.7048167612       -3.1216181970       -7.8555525914
 C        -0.7129740892       -2.6551297713       -9.1888094932
 C         0.3108946537       -2.1535535350       -8.1045433272
 O         1.4901294955       -2.1875116889       -8.1978700279
 C        -0.1861730438       -1.6438812952       -6.7311872994
 C         0.5946821236       -0.3205908261       -6.3092232218
 C         0.0081237353        0.9672815239       -6.9781785187
 O        -0.7018734641        0.8358278823       -7.9457851629
 C         0.4692299586        2.3451993581       -6.2928286847
 C        -0.0034959001        3.5770274497       -7.1551191889
 O         0.7560862330        4.5247190453       -7.2589339309
 C        -1.4282700293        3.6126569440       -7.7718139051
 C        -1.7542062482        5.0362363878       -8.2375092609
 C        -3.1264108866        5.1505838584       -8.9616691543
 O        -3.6914079431        4.1392651168       -9.3419070055
 C        -3.7573977700        6.5300517371       -9.3135313887
 C        -4.9463128976        6.4755742466      -10.3127426277
 O        -5.9717430608        7.1249987199      -10.1653262502
 C        -4.6601013255        5.5632427235      -11.5900982026
 C        -5.4016837073        6.2230312963      -12.7548453511
 C        -5.5421730837        5.5302517212      -14.0998758207
 O        -5.5250900407        4.3394019206      -14.1902849762
 C        -5.7944015043        6.4211219467      -15.4605501326
 C        -4.8283449713        5.8312234979      -16.4512412086
 O        -5.1315159891        4.7115527899      -16.8720898519
 C        -3.5480759033        6.4951849637      -16.6654038362
 C        -2.6753218140        5.6773381876      -17.6374890822
 C        -2.8021285456        4.1892515283      -17.2778234841
 O        -2.5846564787        3.9409916830      -16.0630812422
 C        -2.9651875028        2.9348790297      -18.2903305609
 C        -3.8261868950        1.8377749787      -17.6310233379
 O        -5.0265468825        1.8078078492      -17.7221970757
 C        -2.9659708759        0.7907665493      -16.7684237688
 C        -3.6843379724        0.6221485584      -15.4374264256
 C        -5.0045512074       -0.1634561589      -15.5453079807
 O        -5.1968947743       -0.8828987299      -16.5450859079
 C        -6.0710885553       -0.1480567985      -14.3904647284
 C        -7.4113507371        0.5343977610      -15.0463877221
 O        -7.9670443933        1.3837460724      -14.4264956496
 C        -7.9553003479       -0.0252731411      -16.3672861703
 C        -8.3626479386        0.9150780873      -17.5401743626
 C        -9.1598484878        2.1479810040      -17.0497569162
 O        -8.6066280728        3.0654029324      -16.5134364325
 C       -10.7381174942        2.1550519586      -17.1619335892
 C       -11.2622908569        1.6767393454      -18.5602819668
 O       -10.4805755451        1.7125173789      -19.4735808414
 C       -12.7070938794        1.2562680077      -18.8820068605
 C       -12.9997858746        1.1119644458      -20.3815526541
 C       -14.3263740982        0.2759913245      -20.5469842898
 O       -14.8932731489       -0.3025355311      -19.6640675537
 C       -14.7663580579        0.1515210780      -22.0976228947
 C       -15.1483638443        1.4698135948      -22.8065973323
 O       -14.3969294424        2.0928443776      -23.4738405334
 C       -16.6103531257        2.0059501548      -22.4331816254
 C       -13.6081184339       -0.4809917029      -22.9444649199
 C       -15.9757547446       -0.7804112750      -22.1615928166
 C       -11.3184922972        1.3579518568      -15.9763180010
 C       -11.2772333836        3.5755124591      -16.9582257832
 C        -6.4520173015       -1.5606394929      -13.9377842668
 C        -5.4953100773        0.7106188536      -13.2337274772
 C        -3.6542744384        3.3765676725      -19.6003451525
 C        -1.5027249702        2.5909801650      -18.5399806379
 C        -7.2967808150        6.1956876990      -15.9639539205
 C        -5.6461284448        7.9197387358      -15.0339539138
 C        -4.2907057533        7.1913672956       -7.9713303157
 C        -2.7807294432        7.4907940455       -9.9603324550
 C        -0.1888243027        2.2848725493       -4.8606537076
 C         1.9811801647        2.6159620944       -6.1281974864
 C         0.0454470217       -3.4171788779      -10.2295577070
 C        -1.5801067873       -1.5040195251       -9.7417335944
 C        -3.0950517777       -7.6495082046       -5.1155821157
 C        -1.6274185336       -6.3122521189       -3.7023962141
 C         1.1849770715      -13.4480724969       -3.3280767957
 C        -0.4375837526      -13.0691239162       -1.5570725042
 C         1.3738479262       -9.4880251516        3.1687649044
 C        -0.2676414994       -7.7970804149        2.0767346667
 C         6.2345265973       -6.0036109909       -0.6731428260
 C         4.9157512827       -4.1032852306       -1.7770434475
 H         6.9433409462       -7.1055640036       -3.1767713363
 H         6.4333364198       -5.6183350979       -3.9415693387
 H         5.9039417602       -7.2430680559       -4.5354394196
 H         2.8488016328       -4.4501685563        0.2672416831
 H         3.9313949105       -5.0789281670        1.3631692784
 H         1.3331588272       -6.5023406972        0.6159564205
 H         1.5671150419       -5.5969591273        2.1261805244
 H         3.1592918501      -10.4377158945        1.0972268229
 H         3.2076475490       -9.9109722793       -0.3971508501
 H         0.8163319114      -11.5599888092        0.3032494805
 H         2.5628351957      -12.2474412477        0.1350487821
 H         0.0964884822      -11.7136893748       -5.5588240314
 H         1.1538369750      -10.5120874166       -4.8057695382
 H        -1.8249840552       -9.9952544119       -4.9440948778
 H        -0.9409169101       -9.4740720459       -6.3325830845
 H        -2.0430489543       -4.7391463617       -6.1252626448
 H        -3.0063053383       -5.9475674022       -7.1617951723
 H        -1.5674362962       -5.7888153806       -9.0080732772
 H        -0.2832755459       -5.0523405660       -8.0327897729
 H         0.0374723078       -2.4348219117       -6.0334786673
 H        -1.1609083111       -1.3717313739       -6.7408526542
 H         1.6352120391       -0.3926359054       -6.6068985143
 H         0.5381515271       -0.1683344989       -5.2556835485
 H        -2.2031246714        3.2933630167       -6.9107612032
 H        -1.5821220628        2.9853781308       -8.6262658407
 H        -0.9790525200        5.3816459138       -8.9134935793
 H        -1.7329825277        5.7714428064       -7.3739036597
 H        -5.0266476973        4.5731923957      -11.3171164429
 H        -3.5629808353        5.6122823955      -11.7755168924
 H        -4.7373520807        7.1694757631      -12.8963160099
 H        -6.3417668352        6.5871321353      -12.3581071688
 H        -3.2186209765        6.4846528784      -15.6564766700
 H        -3.5545720268        7.5314127826      -17.1285144579
 H        -1.5193301915        5.8778345558      -17.5585130820
 H        -2.9987609889        5.9345402879      -18.6292417433
 H        -2.0214396926        1.1377907188      -16.4983164583
 H        -2.9227598534       -0.1548267723      -17.3298236026
 H        -3.9429780368        1.6061958613      -15.0446620294
 H        -2.9973386376        0.1248924046      -14.7434372707
 H        -8.9091042646       -0.5686007570      -16.1847574560
 H        -7.0763245181       -0.6659552315      -16.7910199650
 H        -8.9525182722        0.4070491335      -18.3086259722
 H        -7.4374310398        1.3700977023      -18.0286622374
 H       -13.3948416389        2.0749082550      -18.5477020690
 H       -12.9939871382        0.4148000383      -18.2656922771
 H       -12.1824822488        0.4750959651      -20.9014763169
 H       -13.1052138192        2.0413225728      -20.9285844990
 H       -17.3281044946        1.3724234735      -22.8725633134
 H       -16.7465591445        3.0625268823      -22.8235752270
 H       -16.7822380037        2.0484840283      -21.3848994168
 H       -13.2879376511       -1.4864404735      -22.6210559809
 H       -12.8339166484        0.2010794552      -23.1576097481
 H       -14.0280387032       -0.7236377132      -23.9473048927
 H       -16.8071884300       -0.4822930266      -21.4650719450
 H       -15.7671362078       -1.7380755195      -21.5934229304
 H       -16.3536771436       -0.9920260737      -23.1395692560
 H       -12.3846419778        1.1589593361      -16.2328028108
 H       -11.2157775241        1.8694687444      -15.0865373676
 H       -10.7544436263        0.4457964924      -15.9313087686
 H       -11.0706669532        4.3218141043      -17.7852761974
 H       -10.8547854384        4.0861308438      -16.0688458842
 H       -12.3600167427        3.4882734259      -16.8883775198
 H        -6.2261404206       -2.4081737207      -14.5644055004
 H        -7.5599580865       -1.6682151014      -13.8824042367
 H        -6.0430959520       -1.7520052282      -12.9299569546
 H        -4.4785419859        0.4240271293      -13.2684016590
 H        -5.9198014043        0.3860980688      -12.2989783305
 H        -5.5975135166        1.8262469646      -13.3392085218
 H        -3.2248649970        4.2860461533      -19.9235720089
 H        -4.7260553739        3.4807724891      -19.5969637051
 H        -3.4087490275        2.7514349364      -20.3718668958
 H        -1.2185363192        3.3878492163      -19.2185627658
 H        -1.3247176289        1.6101978433      -19.0386915873
 H        -0.9174138176        2.5590575254      -17.6103064840
 H        -7.8202539034        7.0974666881      -15.7084512292
 H        -7.8461450637        5.3661884121      -15.4848179906
 H        -7.2880405428        5.9327745066      -17.0639603978
 H        -4.6552213640        8.1269481224      -14.6580766187
 H        -6.3680324439        8.2174185200      -14.2924526212
 H        -5.8876807761        8.5810619553      -15.9091044646
 H        -3.4935374120        7.6032168627       -7.3604455918
 H        -4.6426024408        6.3417373681       -7.3722147788
 H        -5.0023476777        7.9836548773       -8.2078831707
 H        -1.8416124632        6.9865224430      -10.2207475018
 H        -2.4819807593        8.1888916244       -9.1674823408
 H        -3.1248848620        7.9980246675      -10.8147315129
 H        -1.1223650917        1.7598101661       -4.9840807258
 H        -0.3181020608        3.2581470276       -4.3475623597
 H         0.4990745242        1.5165650947       -4.3633479967
 H         2.0009662083        3.6143824391       -5.6192978113
 H         2.5498198560        2.8023708788       -7.0240335947
 H         2.4553152799        1.7431104479       -5.5175459644
 H        -0.4708608927       -4.1475765263      -10.7136914813
 H         0.8798098357       -3.9259781734       -9.7903028059
 H         0.6318484754       -2.6967408707      -10.7847802954
 H        -2.5627583781       -1.6840262167      -10.1010788717
 H        -1.0888717938       -1.0910513802      -10.6193060317
 H        -1.7715101076       -0.7690156925       -8.9226373224
 H        -3.4299394162       -8.1690916686       -4.3060122839
 H        -3.2680298863       -8.4259326448       -5.9131605425
 H        -3.6621608830       -6.7380403354       -5.3247701192
 H        -0.9094056393       -5.4638658490       -3.7958883313
 H        -1.4668006921       -6.7496548061       -2.7421814401
 H        -2.5355547951       -5.6895968878       -3.6355990082
 H         1.7028193828      -13.0848146235       -4.2321527148
 H         0.4986279497      -14.1768919785       -3.7107557490
 H         1.9680836301      -13.9503022104       -2.7469634155
 H        -0.9251710299      -13.8981704977       -2.0186074686
 H        -1.1482055470      -12.3833272375       -1.1907720421
 H         0.1544212876      -13.5406648829       -0.7025332140
 H         1.1749427751       -8.8636852228        4.0665785430
 H         2.3902485606       -9.8543967980        3.0881808832
 H         0.6596337071      -10.3503505454        3.1984297582
 H        -0.2329018782       -6.7980911557        2.4851163154
 H        -0.8753364561       -8.4415584694        2.6932354107
 H        -0.7980363642       -7.6958987669        1.1311751268
 H         7.2088079332       -5.7581276364       -1.1030139394
 H         6.2399650380       -7.0423208507       -0.3697580663
 H         6.1105853824       -5.5488281511        0.3243751284
 H         4.8904321980       -3.6297943062       -0.8191684344
 H         3.9002846625       -3.9976538833       -2.2239240732
 H         5.6966552378       -3.8297176107       -2.4879084364
 Na        2.2710260999       -8.5256717266       -2.5186994393
 Na       -6.4666942974        3.1412103019      -16.0925540389
