232

 C         6.0648052057       -6.5023837838       -3.7946489614
 C         4.8645258590       -6.3923729164       -2.8901543711
 O         3.7840789377       -6.8093386491       -3.1945466371
 C         5.0157778739       -5.7045155699       -1.4328739892
 C         3.8187223345       -6.2334743765       -0.5517321258
 O         3.5639469351       -7.4055136145       -0.6604397413
 C         3.2206831249       -5.4050313993        0.5637432602
 C         2.0352403847       -6.0973676358        1.2834644388
 C         2.3494135012       -7.5553799531        1.9969712545
 O         3.3955412025       -7.8510660222        2.4467333536
 C         1.1612876591       -8.5821350807        1.8718539474
 C         1.4003243207       -9.1835925951        0.4894248915
 O         0.8396075946       -8.7229415202       -0.4951061229
 C         2.4815362927      -10.3039585753        0.3058883233
 C         1.7315570950      -11.5442979380       -0.2911223973
 C         1.6171172160      -11.4572767771       -1.7502085676
 O         2.4346375370      -10.9713440761       -2.5066474802
 C         0.5148350522      -12.3405303573       -2.4183492838
 C        -0.3147474830      -11.3177806976       -3.3738635481
 O        -1.4110101204      -10.9959479684       -2.9065123570
 C         0.0919116325      -10.9227467600       -4.7881846672
 C        -0.8245434884       -9.7793638438       -5.2214434472
 C        -0.6104098560       -8.3782176809       -4.5951050799
 O         0.3855967861       -8.1285243993       -3.9511319929
 C        -1.6277650070       -7.2284559613       -4.9675757492
 C        -1.1151074021       -6.6667059884       -6.3623961024
 O        -0.1814876983       -7.1157590642       -6.9975839877
 C        -1.9498728547       -5.5697083808       -6.9485340417
 C        -1.2664654513       -4.9958196924       -8.1874475227
 C        -1.7438611278       -3.5299806058       -8.3513394724
 O        -2.8398814703       -3.1606339098       -7.9891173220
 C        -0.6863703688       -2.5976602228       -9.0738413653
 C         0.3506585291       -2.0488997388       -7.9935109195
 O         1.5225446051       -2.3000107568       -8.2761771973
 C        -0.1561415692       -1.4891793900       -6.7005042146
 C         0.5847821281       -0.2814125458       -6.2221481720
 C         0.1166782630        1.0126489722       -7.0205001702
 O        -0.6069667972        0.8517347835       -7.9837805107
 C         0.4490361328        2.3209389381       -6.3186463770
 C        -0.0618895509        3.6817351644       -7.1308844642
 O         0.7292214512        4.5677782407       -7.4242950856
 C        -1.4961249239        3.7465682978       -7.7201860824
 C        -1.7236470016        5.1843267598       -8.2115107311
 C        -3.0878594281        5.2338938875       -8.8883449131
 O        -3.5926310537        4.1774867808       -9.3490081488
 C        -3.7588952093        6.5251359714       -9.1524864061
 C        -4.9634077186        6.3319151633      -10.1875479547
 O        -5.9791248648        6.9209599915      -10.1530173697
 C        -4.7852187220        5.4957213493      -11.5801775854
 C        -5.4633752434        6.2794044183      -12.7559591075
 C        -5.6193649286        5.5183652890      -14.0480764947
 O        -5.5178181089        4.3088972241      -14.1631092736
 C        -5.9219002039        6.3891015010      -15.3111945605
 C        -4.9127932384        5.8101084011      -16.4251204500
 O        -5.0748733857        4.7721436447      -17.0568955528
 C        -3.5413253806        6.4829326290      -16.7435572355
 C        -2.7766583609        5.5339084439      -17.7317839763
 C        -2.8644106091        4.0549211913      -17.2146711408
 O        -2.5487740267        3.7398469777      -16.0630690651
 C        -2.9439659259        2.9475651408      -18.3009371391
 C        -3.8216593653        1.8149345145      -17.5938744959
 O        -5.0406513558        1.9304434056      -17.5330374065
 C        -3.1467551232        0.7465097325      -16.7557518630
 C        -3.6494960838        0.5857278046      -15.3133584091
 C        -4.9623025471       -0.2038722334      -15.4941780868
 O        -5.0433199993       -1.0307469117      -16.4370657022
 C        -6.0742235088       -0.1546444707      -14.4354259447
 C        -7.3413193529        0.5595538809      -15.0961655930
 O        -7.8505232188        1.4740671797      -14.4940570334
 C        -8.0504766283       -0.1312990653      -16.3197066351
 C        -8.3742250227        0.8590030648      -17.4847396429
 C        -9.2993541835        2.1631113870      -17.0828500402
 O        -8.6830901980        3.1672787145      -16.7298319246
 C       -10.8359070766        2.1370008626      -17.1012192484
 C       -11.2520673422        1.7608209876      -18.5799413082
 O       -10.5086090216        2.0191388583      -19.5046694418
 C       -12.7565611469        1.3206572787      -18.7868904474
 C       -13.0298109094        1.0918264272      -20.2721126516
 C       -14.2946940921        0.2882071719      -20.7016846715
 O       -14.9367066140       -0.1759179845      -19.7523414901
 C       -14.7766990358        0.0963977320      -22.1362897642
 C       -15.1316885025        1.4932435917      -22.7570899273
 O       -14.2797436140        2.1342569864      -23.3365067224
 C       -16.5373420307        2.0049569257      -22.5590340493
 C       -13.5585114556       -0.4523278938      -22.9546217193
 C       -15.9798252459       -0.8803737410      -22.1160070087
 C       -11.3617662642        1.2661362835      -15.8800795289
 C       -11.3112684793        3.5749237738      -16.9105513482
 C        -6.4752102864       -1.5684047411      -14.0439475001
 C        -5.6267749249        0.7683051352      -13.2112691583
 C        -3.6783365771        3.3002668889      -19.6217021753
 C        -1.4218559183        2.6326058744      -18.5670928669
 C        -7.4325132204        6.2123980696      -15.8838466905
 C        -5.6976745924        7.9003016798      -15.0431906628
 C        -4.3926031627        7.1113315389       -7.7791106342
 C        -2.6518409685        7.4720174056       -9.9460106856
 C        -0.1956671484        2.1800664098       -4.8946900481
 C         1.9233974609        2.4442250176       -6.2695514048
 C         0.0786053899       -3.3796876190      -10.2158795366
 C        -1.5693545193       -1.4366135333       -9.7728030515
 C        -3.0625695362       -7.6692549606       -5.2272733187
 C        -1.6239092386       -6.2238263194       -3.7615311159
 C         1.1950679558      -13.3891343467       -3.3462536663
 C        -0.4487303471      -13.0105909729       -1.4981303012
 C         1.3546502722       -9.5364358969        3.0414088750
 C        -0.2028012989       -7.8274727512        1.8782019920
 C         6.4261105182       -5.9111054458       -0.7544618424
 C         4.9953473039       -4.1714138875       -1.7724976552
 H         7.0103350085       -6.9122798919       -3.3694688598
 H         6.3615560481       -5.5614100330       -4.2144010231
 H         5.8525818898       -7.2126647001       -4.5843545607
 H         2.8339314961       -4.4471422365        0.1133226635
 H         3.9334026594       -4.9809232484        1.3212994599
 H         1.1706465566       -6.1801999948        0.5730387516
 H         1.8936871720       -5.3950651133        2.1244924789
 H         3.1337596879      -10.6034841362        1.1538205622
 H         3.3078786215      -10.0234274068       -0.4132359769
 H         0.7433998057      -11.5963273543        0.2336495978
 H         2.3250673167      -12.4298370308       -0.1122608002
 H         0.0635538090      -11.8703933557       -5.4220948234
 H         1.1201355031      -10.5494876604       -4.7979647979
 H        -1.9296299344       -9.9926734458       -5.1012985324
 H        -0.7689005329       -9.5566621771       -6.3086005565
 H        -2.0791865711       -4.8332088400       -6.2081378797
 H        -2.9319626397       -5.9688538428       -7.3434449189
 H        -1.5789021972       -5.5254308622       -9.0190478664
 H        -0.1479403879       -4.9409109470       -8.2150932083
 H         0.0189422266       -2.2484761316       -5.9990034000
 H        -1.1810377033       -1.2007829119       -6.9550032864
 H         1.5622178864       -0.5394191107       -6.5543435051
 H         0.5506371911       -0.1443458091       -5.1800435070
 H        -2.2889715555        3.4342456155       -7.1008108544
 H        -1.5109525294        3.1379781890       -8.6430280107
 H        -0.9452682741        5.4982914532       -8.9654084859
 H        -1.6862089202        5.9070504309       -7.3810797832
 H        -5.5137997115        4.6608976862      -11.3916852151
 H        -3.7484873306        5.1322719123      -11.7898251324
 H        -4.8475736764        7.1135839765      -12.9759069305
 H        -6.4030499444        6.6970153852      -12.2765385405
 H        -3.0023453281        6.5076846163      -15.7798507310
 H        -3.4347014348        7.4099132624      -17.3034716363
 H        -1.6925044361        5.8418990398      -17.6106462638
 H        -3.0606199762        5.7126857684      -18.7902569716
 H        -2.0774845169        0.9215891870      -16.6897665270
 H        -3.3374813423       -0.1880907307      -17.2027622888
 H        -3.8476579077        1.5021488157      -14.7578722968
 H        -2.8774759411        0.0145950194      -14.7953390108
 H        -9.0388729573       -0.4734095650      -16.0362611487
 H        -7.3782740872       -0.8994204515      -16.7349436548
 H        -8.9008813034        0.3429148817      -18.2849074731
 H        -7.4260721495        1.2426569462      -17.9259416040
 H       -13.4289979466        2.1352489304      -18.4103060610
 H       -12.9693365830        0.4873899419      -18.0981522701
 H       -12.1883339017        0.3930613830      -20.5830507621
 H       -12.9634755190        1.9810288895      -20.8573047271
 H       -17.1564744561        1.2854405275      -23.0422120819
 H       -16.7044825571        3.0060247874      -22.9501695044
 H       -16.8287621024        1.9742289062      -21.4732486989
 H       -13.3697280116       -1.5375709731      -22.6738172057
 H       -12.6311556420        0.2247911334      -22.9077049392
 H       -13.7741826403       -0.5524953454      -24.0234813752
 H       -16.7702170422       -0.6481429956      -21.3673822416
 H       -15.7569412838       -1.8833671483      -21.7816666370
 H       -16.4443007177       -0.9323353540      -23.1245706141
 H       -12.4176974871        1.3617982342      -15.7387616915
 H       -10.8239652717        1.7075066134      -15.0062950153
 H       -10.9456232739        0.2833789858      -16.0343194477
 H       -10.8191019573        4.2228878024      -17.5724547855
 H       -11.0624414023        4.0134636368      -15.9755069350
 H       -12.4241962629        3.6291166802      -17.0653732855
 H        -6.4022865612       -2.2706787488      -14.8557957798
 H        -7.5649301324       -1.6077149271      -13.8929239064
 H        -5.9710463326       -1.9791588867      -13.1806799447
 H        -4.5948978975        0.5580448583      -13.0862717171
 H        -6.1948260081        0.3116281026      -12.3693316527
 H        -5.8158816498        1.8736316878      -13.2303347055
 H        -3.5359770643        4.2981278649      -20.0351578226
 H        -4.6895076977        3.0710679087      -19.6095227996
 H        -3.2492012562        2.5933420345      -20.4336499033
 H        -1.1748451025        3.1587396489      -19.4923747068
 H        -1.2288309817        1.4898424436      -18.6624883737
 H        -0.8027021924        2.8926646690      -17.6945177939
 H        -8.0365675282        7.0193830088      -15.5737974535
 H        -7.8478853143        5.2729666412      -15.4718665945
 H        -7.4085657578        5.9764769183      -16.9317172366
 H        -4.6163373393        8.0587896781      -14.9007119541
 H        -6.2197140132        8.2730987541      -14.1814827734
 H        -6.0301487490        8.4842928102      -15.8728555304
 H        -3.5853188258        7.4789576079       -7.1737632700
 H        -4.7501640865        6.2935176032       -7.1977685467
 H        -5.1088698867        7.9495019108       -8.0118967739
 H        -2.0514261436        6.7901935078      -10.5429821109
 H        -1.9346923889        7.9007117148       -9.1934526483
 H        -3.0395786210        8.2712385857      -10.5996370933
 H        -0.9595557513        1.3608339563       -4.8996892308
 H        -0.6750522492        3.2110603456       -4.6669871939
 H         0.6028365066        1.8695638480       -4.2273795743
 H         2.2242056058        3.2494880861       -5.5298148705
 H         2.3218963406        2.8797456978       -7.2305532393
 H         2.3690851521        1.4252147661       -6.0962528483
 H        -0.5281655109       -4.1863763216      -10.5135983145
 H         1.0159168757       -3.8318812828       -9.9534360734
 H         0.4185625744       -2.6595561327      -10.8578757111
 H        -2.3200931568       -1.7104648719      -10.5054624264
 H        -0.9495933759       -0.8338070449      -10.3493041113
 H        -2.1489953272       -0.8791166501       -9.0349436102
 H        -3.3499275055       -8.3712685537       -4.4478895816
 H        -3.2156968976       -8.2316279354       -6.0707207282
 H        -3.7049924258       -6.7944320474       -5.2667068588
 H        -0.7471669228       -5.6244672444       -3.6068140959
 H        -1.9142579800       -6.6661460597       -2.8248099184
 H        -2.3197891918       -5.3612329795       -3.9581998590
 H         2.0179646655      -12.9365980606       -3.8360055415
 H         0.6160700136      -13.8720592312       -4.0891725720
 H         1.7034768729      -14.1766325431       -2.6855743747
 H        -1.3088146768      -13.3687515547       -2.0627076703
 H        -0.8389948139      -12.2427913353       -0.8730081748
 H        -0.0305532447      -13.8486789986       -0.9248254934
 H         1.0464006380       -8.9768590640        3.9518765115
 H         2.3221764502       -9.9622008949        3.0848111625
 H         0.5893206922      -10.2940089006        2.8930749600
 H        -0.0174956002       -6.8020322289        2.2576272888
 H        -0.9543639587       -8.3322059622        2.5053973296
 H        -0.6313698282       -7.6724405795        0.8534188868
 H         7.1569637625       -5.2320116537       -1.0961088995
 H         6.8352937776       -6.9310621074       -0.8016552799
 H         6.3091457068       -5.8220601169        0.3463818175
 H         4.5922230724       -3.6204210382       -0.8816078092
 H         4.2317768647       -4.1339839074       -2.5202446696
 H         5.9434052199       -3.8528986426       -2.1362534157
 Na        2.2075201390       -8.5048957159       -2.5013531235
 Na       -6.4131287399        3.0617258163      -15.9603856829
