232

 C         6.0676737127       -6.3177442097       -3.8794598887
 C         4.9633842840       -6.3662761096       -2.9026505867
 O         3.8564667142       -6.7861885472       -3.2457043027
 C         5.0823998783       -5.6972873205       -1.5138995088
 C         3.9682234222       -6.3692421331       -0.4928925020
 O         3.5498552996       -7.5369452012       -0.5625161623
 C         3.3230580067       -5.3880909973        0.5471990425
 C         2.1603910800       -6.0052564368        1.2474955148
 C         2.4190192295       -7.4227381891        1.8388122461
 O         3.4979111282       -7.6789157663        2.3376425209
 C         1.2009075258       -8.5529983239        1.8489748146
 C         1.4687069215       -9.2172325992        0.4797330610
 O         0.8954822203       -8.7773762769       -0.5473937125
 C         2.4356491250      -10.3678020278        0.3531981349
 C         1.7422582096      -11.6620393918       -0.2800615307
 C         1.6476396373      -11.5774834062       -1.8012997452
 O         2.3794110308      -10.9023399113       -2.5185736707
 C         0.4308760421      -12.3692206995       -2.4531908410
 C        -0.4573640706      -11.3021045686       -3.2101541833
 O        -1.4357580742      -10.8145627681       -2.6610022641
 C         0.0593697709      -10.8561268250       -4.5593896857
 C        -0.8095360194       -9.8334348902       -5.2818607781
 C        -0.5886420507       -8.3903130288       -4.6896935459
 O         0.3419178172       -8.1987511151       -3.9596093410
 C        -1.6494291683       -7.2857583004       -5.0307837521
 C        -1.0803991486       -6.6439560528       -6.3432470845
 O        -0.0608172182       -7.0853149175       -6.8233477572
 C        -1.9544446474       -5.5199644690       -7.0011781854
 C        -1.2384789359       -4.8666105083       -8.1708604753
 C        -1.7318230630       -3.5034808240       -8.4733584181
 O        -2.8451974373       -3.1423395605       -8.1229233199
 C        -0.7228662268       -2.5417867928       -9.1571438899
 C         0.3251582668       -2.0936479518       -8.0436406176
 O         1.5154319654       -2.2729275820       -8.1943280019
 C        -0.1819502795       -1.4585085528       -6.7366041940
 C         0.6358062446       -0.2613577537       -6.3056821955
 C         0.1050866671        0.9975545461       -7.0370839416
 O        -0.4980965673        0.9529167426       -8.0865484275
 C         0.4621086883        2.3785304272       -6.3636000695
 C        -0.0565475852        3.6135665318       -7.1875626375
 O         0.7471857134        4.4734539758       -7.4304852829
 C        -1.4885470163        3.7976719494       -7.5527744696
 C        -1.7858452240        5.2188919979       -8.1295832800
 C        -3.1145770303        5.2062462761       -8.9855208764
 O        -3.5239559744        4.1477587692       -9.3292105619
 C        -3.7901439836        6.5150305169       -9.2266623797
 C        -4.9972671128        6.3300221769      -10.2813295442
 O        -6.0781482971        6.8047910014       -9.9513341291
 C        -4.8996348559        5.3665764972      -11.4713874894
 C        -5.4144257678        6.2458041565      -12.6953347923
 C        -5.6191328741        5.5236229845      -14.0144672445
 O        -5.6149694573        4.2812696404      -14.0170235898
 C        -5.9026635368        6.3890518722      -15.3522427693
 C        -4.9937648031        5.8153651054      -16.4067389148
 O        -5.3639477699        4.8701218291      -17.0712644470
 C        -3.5535795984        6.4785358800      -16.6916064882
 C        -2.7879482308        5.5348706217      -17.7022946560
 C        -2.7499144259        4.0363270186      -17.2012590835
 O        -2.6292718257        3.6328357146      -16.0959103878
 C        -2.9373783106        2.8771343426      -18.3532604368
 C        -3.7105871999        1.9097296066      -17.4168707914
 O        -4.9598489205        2.0406910268      -17.3689104787
 C        -3.0045519435        0.7300348640      -16.8326941948
 C        -3.6357249536        0.5357954179      -15.4073503721
 C        -4.8971084150       -0.3629053452      -15.4486087699
 O        -5.0057066872       -1.1772102871      -16.2693679336
 C        -6.1457174764       -0.1986343433      -14.4313572317
 C        -7.3310985592        0.5570634842      -15.0897093914
 O        -7.7685958343        1.6775958508      -14.7234833781
 C        -8.1380278390       -0.1476655209      -16.2106340639
 C        -8.4808456525        0.8803587290      -17.2933200394
 C        -9.2973747986        2.1353886616      -16.9972447520
 O        -8.6751920767        3.2060977941      -16.9434158362
 C       -10.7954037359        2.1385864732      -17.0487830329
 C       -11.3474802981        1.8912728964      -18.5210454246
 O       -10.6238501963        2.2069157058      -19.4478148674
 C       -12.7455850134        1.3460494160      -18.8663902740
 C       -12.9035483392        1.0751487568      -20.3200421535
 C       -14.2996689176        0.2929374381      -20.5891304457
 O       -15.0744225303       -0.0699637317      -19.7411110432
 C       -14.7055852375        0.0535203730      -22.1445772745
 C       -15.0816205732        1.4841619971      -22.6879803857
 O       -14.1853420278        2.2153022342      -23.1652111498
 C       -16.5028859857        2.0201797323      -22.6874021055
 C       -13.5351304212       -0.4910012726      -22.9716149453
 C       -15.8579322720       -0.9325883664      -22.1436065215
 C       -11.3916805079        1.1480261503      -15.9849935097
 C       -11.3472187058        3.6413642801      -16.8349177743
 C        -6.5227623052       -1.5720829004      -14.0928788490
 C        -5.8565146841        0.6663811078      -13.1425792148
 C        -3.6889288130        3.1792443308      -19.6413448265
 C        -1.4708981169        2.4813928357      -18.6683692440
 C        -7.4139494739        6.1507099937      -15.7189425373
 C        -5.7415203797        7.8839918441      -15.2595607971
 C        -4.3517446573        7.0692011612       -7.9405918723
 C        -2.7529212100        7.4831332239       -9.7412008428
 C        -0.2610325612        2.3912853722       -4.9417104314
 C         2.0968497658        2.3790138985       -6.3190510694
 C        -0.0305669127       -3.2856622350      -10.2515116452
 C        -1.4684201046       -1.3360613368       -9.7324529694
 C        -3.0291204901       -7.8648789209       -5.2489650957
 C        -1.5198606879       -6.1583532741       -3.9747075132
 C         1.2632427267      -13.4052374921       -3.4395144053
 C        -0.5126670122      -13.0329120286       -1.4017052760
 C         1.2091986926       -9.6322228004        2.9767152891
 C        -0.2205122776       -7.9452655468        1.7759391568
 C         6.5010157295       -5.9539424941       -0.8603855784
 C         4.9041080196       -4.1151543847       -1.7557930070
 H         7.0356326616       -6.6404273528       -3.5705997400
 H         6.1673975590       -5.3398370742       -4.2514939449
 H         5.8902435615       -7.0397004509       -4.7120065155
 H         2.9750292240       -4.4405969522        0.0477032828
 H         4.0832223765       -4.9644982094        1.3128688228
 H         1.2953420325       -6.1321521725        0.4748159683
 H         1.9397151061       -5.3207216657        2.1115844671
 H         2.8134394212      -10.6143389210        1.3448123334
 H         3.4737563433      -10.1546096761       -0.1611879367
 H         0.7856891728      -11.6798868470        0.1611069115
 H         2.2787256670      -12.5300604793       -0.0188155851
 H         0.0531189262      -11.7859456757       -5.1520913695
 H         1.1281753904      -10.5205841568       -4.5535371384
 H        -1.8805737493      -10.0551951732       -5.3819411185
 H        -0.4688415047       -9.7944042596       -6.3195244750
 H        -2.1713098589       -4.7691053821       -6.2311767917
 H        -2.8948836981       -5.9829502732       -7.3379498996
 H        -1.4641902062       -5.3702272003       -9.1144530874
 H        -0.1297590136       -4.8037319828       -8.1188540891
 H         0.0465802963       -2.2024384577       -5.9513320543
 H        -1.2427952700       -1.0686202721       -6.9642609045
 H         1.6541321286       -0.5623253566       -6.5444904358
 H         0.4825481405       -0.0567929622       -5.2289061766
 H        -2.0913665187        3.6072149911       -6.7440148486
 H        -1.7169562434        3.0407024009       -8.3321607233
 H        -0.9642262991        5.6074660984       -8.7780631248
 H        -1.8944558457        5.8889494617       -7.2957819659
 H        -5.5123271775        4.4490246740      -11.3702467980
 H        -3.8142562142        5.1690419816      -11.5135782915
 H        -4.7966717137        7.0884306300      -12.7863975709
 H        -6.3806444507        6.6289117341      -12.2637956544
 H        -2.9052154306        6.8254642875      -15.8218722747
 H        -3.6484100828        7.2663034680      -17.3914244504
 H        -1.9176087833        6.0012147264      -18.0012742014
 H        -3.4344739841        5.4989517105      -18.6330920424
 H        -1.9088924084        0.9705923164      -16.6964429675
 H        -3.1502038420       -0.1394709275      -17.4682913933
 H        -3.9484930045        1.5081516952      -14.9801100008
 H        -2.8726847856        0.1759692331      -14.7044158166
 H        -9.0769202625       -0.5106405347      -15.8390415334
 H        -7.5709874707       -0.8520912752      -16.6959983602
 H        -9.1246877170        0.4089506824      -18.0571507347
 H        -7.5877628512        1.1366258944      -17.7939425288
 H       -13.5836225319        1.9383084775      -18.5092443342
 H       -12.8305493691        0.4091013487      -18.2527589998
 H       -12.0989573470        0.5474684781      -20.6891118817
 H       -13.0513167206        1.9918775710      -20.9291108288
 H       -17.1997882589        1.3738577061      -23.3215367961
 H       -16.4858339858        3.0094572962      -23.0239139499
 H       -16.8982748452        1.9965372006      -21.6338225412
 H       -13.3735848697       -1.5441048869      -22.6765450377
 H       -12.5961144837        0.1464126783      -22.8451598270
 H       -13.7033892389       -0.5601476153      -24.0686709758
 H       -16.5946862601       -0.7387463091      -21.4092602582
 H       -15.6185306469       -1.9504596433      -21.9789284517
 H       -16.3652219412       -0.8703956388      -23.1427002681
 H       -12.3123133481        1.5802934271      -15.6402927753
 H       -10.6642512901        1.2413688472      -15.1112738886
 H       -11.3500182553        0.1079317415      -16.3832512544
 H       -10.7471777740        4.3254589487      -17.3719934089
 H       -11.2040135740        4.0652762419      -15.8602248454
 H       -12.3951412916        3.7162052257      -17.0411263929
 H        -6.7389785187       -2.1200065820      -15.0129317407
 H        -7.4180994150       -1.7088618272      -13.5361831819
 H        -5.7120996600       -2.0725053952      -13.6074082730
 H        -4.9561280216        0.2950508621      -12.5283713972
 H        -6.8139678555        0.5386494822      -12.6269362980
 H        -5.7289265514        1.7050513299      -13.3482598254
 H        -3.4826473484        4.1929797201      -20.1080600073
 H        -4.8008800573        3.0871514665      -19.4580020240
 H        -3.5164380801        2.4212688448      -20.4595513681
 H        -1.1576805345        2.9907729310      -19.6186087637
 H        -1.3400716001        1.4153705139      -18.7081837453
 H        -0.8519521505        2.7128968682      -17.7828498058
 H        -8.0308667144        6.8144214028      -15.0962155094
 H        -7.6188191934        5.1319384453      -15.4632476252
 H        -7.6119766064        6.1304539657      -16.7288013716
 H        -4.6984670715        8.0547379191      -15.0081955443
 H        -6.3376584689        8.2229247165      -14.4079462452
 H        -5.9862259393        8.4318572754      -16.1340457805
 H        -3.4715357587        7.2991785507       -7.3127636617
 H        -4.8090536590        6.2666524726       -7.3882126144
 H        -4.9800900459        7.9249652005       -8.1031670043
 H        -2.5627795958        7.1400913022      -10.7810190297
 H        -1.8148044603        7.4618952631       -9.2022313855
 H        -3.1224688902        8.5625532165       -9.7948687218
 H        -1.0082424343        1.5432472743       -4.8195186873
 H        -0.7168746641        3.3671261926       -4.8795279524
 H         0.5100116685        2.2575855998       -4.2258511861
 H         2.5720658277        3.0234337217       -5.5866340762
 H         2.4992599625        2.7754382252       -7.3013020107
 H         2.3832794929        1.3780867443       -6.2226720630
 H        -0.7098022067       -4.1198909001      -10.5801355007
 H         0.7807981931       -3.8487075685       -9.8278460693
 H         0.5074000936       -2.5752952403      -10.8563934369
 H        -1.8291045390       -1.4915334830      -10.7515305870
 H        -0.8090643853       -0.4882484012       -9.9093422011
 H        -2.3230139583       -1.1136586653       -9.2031860264
 H        -3.3421137736       -8.6523961484       -4.4968452004
 H        -3.1485480168       -8.3548034019       -6.1808149847
 H        -3.7067650949       -7.0551200299       -5.2703635682
 H        -0.5799941840       -5.9534682940       -3.5279962536
 H        -2.2712565521       -6.3027443129       -3.1638099842
 H        -1.7029064820       -5.1935082000       -4.3810338902
 H         2.2735288147      -13.0567647383       -3.6575323208
 H         0.7891173780      -13.6938929730       -4.4126341863
 H         1.4218502505      -14.3063062485       -2.9049977952
 H        -1.5074518139      -13.1729714822       -1.8865677587
 H        -0.7379755607      -12.2893729415       -0.5877603901
 H        -0.1424445913      -13.9204763281       -1.0201797391
 H         0.8343546280       -9.2807779922        3.9003322139
 H         2.2022428938      -10.0984541602        3.1236390334
 H         0.5240751014      -10.3386761997        2.5847487933
 H        -0.2745703005       -7.0416714699        2.4389516055
 H        -1.0102919582       -8.6880340683        2.0744712987
 H        -0.4409049320       -7.5517353928        0.7436853590
 H         7.2660416769       -5.2157564931       -1.1418507607
 H         6.8860566635       -6.9414103008       -1.1245763478
 H         6.5060781687       -6.0544199190        0.2018154669
 H         4.5620474375       -3.6714606521       -0.8265616489
 H         4.1647744729       -3.9584558005       -2.5072306306
 H         5.9171166914       -3.7436149128       -2.0020827285
 Na        2.1238370184       -8.4972272333       -2.4731131362
 Na       -6.3789122499        3.0186719419      -15.8803792136
