232

 C         6.0957736811       -6.1053474384       -3.9639846373
 C         4.9131735754       -6.3508303483       -2.9790180541
 O         3.8670643437       -6.9059406647       -3.3120046637
 C         5.0902821960       -5.7476156194       -1.5055890816
 C         4.0908255546       -6.3117142162       -0.5434039074
 O         3.7241505773       -7.4786754942       -0.6081773492
 C         3.4309813298       -5.4515177360        0.5708461335
 C         2.1336279842       -6.0146902505        1.2425271560
 C         2.4052360032       -7.3574252355        1.8316948204
 O         3.5315251754       -7.6006753536        2.2585043042
 C         1.2197933448       -8.5098024552        1.7354153584
 C         1.5627673088       -9.2800014138        0.3814061412
 O         1.0012570713       -8.8254258979       -0.6153376309
 C         2.4869006409      -10.4392967056        0.3594190933
 C         1.8264098137      -11.7033534372       -0.2359035498
 C         1.5107034703      -11.5588880603       -1.7463844270
 O         2.2653726391      -10.8473350276       -2.4296562976
 C         0.4040830944      -12.3835012973       -2.4101063440
 C        -0.5278558159      -11.2741734168       -3.0940184921
 O        -1.3454305655      -10.6980597529       -2.4706056677
 C         0.0636291450      -10.8420302475       -4.4949889503
 C        -0.7301740144       -9.8584879338       -5.3401883014
 C        -0.6080536735       -8.4826061892       -4.6442380663
 O         0.3385448077       -8.1882946208       -3.9115823337
 C        -1.6542769811       -7.3349449093       -5.0900840254
 C        -1.0664535575       -6.7082389156       -6.4026925126
 O         0.0628168754       -6.9443378051       -6.7624016537
 C        -1.9492955901       -5.6107977147       -7.0695728840
 C        -1.1421752404       -4.9184789223       -8.1603309277
 C        -1.7663055828       -3.4480023463       -8.5340170160
 O        -2.8694435413       -3.0597421235       -8.2419238822
 C        -0.7167226436       -2.4625014213       -9.2848784499
 C         0.2913822673       -2.1214054938       -8.1540308844
 O         1.4781758507       -2.2523679593       -8.1498848300
 C        -0.3641664649       -1.5383709167       -6.7618992585
 C         0.5789420371       -0.2508243268       -6.4255708598
 C         0.1166273501        1.0181316523       -7.0602176681
 O        -0.3853307461        1.0820816159       -8.1556825607
 C         0.5366893545        2.3961752032       -6.3963974287
 C         0.0779908091        3.6225225386       -7.2187120836
 O         0.8913515940        4.4699411956       -7.4951401206
 C        -1.4924206798        3.7474164714       -7.3576122274
 C        -1.8657006321        5.0790049763       -7.9741907595
 C        -3.0573790950        5.0150130049       -8.9808601894
 O        -3.5314771983        3.9986640187       -9.3975445044
 C        -3.7722498490        6.5126009582       -9.2718353864
 C        -5.1002454043        6.2266217030      -10.1456289885
 O        -6.1896038540        6.7051271568       -9.8374113861
 C        -4.9737832260        5.4403190202      -11.4430283529
 C        -5.3688329429        6.3365375994      -12.6533378119
 C        -5.5988980830        5.5406554921      -13.9233402331
 O        -5.7534806308        4.3209828045      -13.9889804014
 C        -5.8567839350        6.3541028476      -15.1799918190
 C        -5.1001881198        5.7942970220      -16.5014842110
 O        -5.5555201410        4.8759555675      -17.1314269947
 C        -3.7749759117        6.3205002248      -16.6748483516
 C        -2.8672690873        5.5201604890      -17.7033200018
 C        -2.8413820601        4.0581489204      -17.3268890071
 O        -2.6487644275        3.7987088895      -16.1377676323
 C        -2.8687922175        2.8390325564      -18.3709900758
 C        -3.6675207673        1.7722567529      -17.5180260287
 O        -4.7783876828        2.0908084108      -17.1865749372
 C        -2.9267823016        0.7128718558      -16.7184580762
 C        -3.6976925811        0.5132780106      -15.3579558832
 C        -4.9622012747       -0.3622693127      -15.4740323889
 O        -4.9823686019       -1.3588178957      -16.1318338328
 C        -6.2589498652       -0.2248308393      -14.4458344431
 C        -7.3496509391        0.5626641608      -15.1223543442
 O        -7.5813108034        1.7429189130      -14.8890491911
 C        -8.2693981219       -0.1617115404      -16.1309387907
 C        -8.6549471156        0.7770157506      -17.3432089862
 C        -9.2495286204        2.2340284416      -17.0693043367
 O        -8.5644100096        3.2264236177      -17.0104671847
 C       -10.8673948927        2.2396078382      -17.0316305126
 C       -11.3849375878        1.9525648112      -18.5853914342
 O       -10.6449035577        2.3942909743      -19.4164441539
 C       -12.7386277570        1.2505353358      -18.8336712895
 C       -12.9836770683        0.9835208104      -20.3287520266
 C       -14.3274683109        0.3678831009      -20.6009165078
 O       -15.0288836835        0.1184620138      -19.6814062467
 C       -14.6408213484        0.0384697700      -22.1365432301
 C       -14.9714627411        1.5305198491      -22.6592477479
 O       -14.0542714934        2.2507553730      -22.9303721403
 C       -16.4933153419        1.9434453625      -22.7732419383
 C       -13.4632650476       -0.5102011028      -22.9499091100
 C       -15.7967412870       -0.9256639963      -22.2449058478
 C       -11.4832117311        1.0933317775      -16.1436653800
 C       -11.3933004974        3.6396454839      -16.6169169762
 C        -6.6483752596       -1.6776497886      -14.0243695674
 C        -5.9241872960        0.5475304515      -13.0031739187
 C        -3.6837469621        3.1534437463      -19.5844121268
 C        -1.4726198924        2.2659006214      -18.8392960715
 C        -7.4092849368        6.0029601215      -15.5142658068
 C        -5.7254702262        7.9658875968      -15.2681974896
 C        -4.3736551017        7.0845409102       -7.9452247463
 C        -2.8514983268        7.6753129142       -9.8177082158
 C        -0.1455992322        2.6425880004       -5.0218734323
 C         2.0692982628        2.4840915321       -6.2466333542
 C         0.0197191407       -3.2244301443      -10.4533185861
 C        -1.4098412593       -1.1722444400       -9.7088854846
 C        -3.0173774097       -7.9573443920       -5.1940016790
 C        -1.4914610765       -6.1958159519       -4.0677008069
 C         1.0125344750      -13.3666541409       -3.3968251418
 C        -0.4840045107      -13.2116045511       -1.4905521462
 C         1.2048406633       -9.5399470959        2.9083211684
 C        -0.2013003727       -7.9220406201        1.7288530508
 C         6.4729549332       -6.0681003692       -0.9423431717
 C         4.8121841867       -4.2659886908       -1.6443112454
 H         7.0172348021       -6.4198343045       -3.5421204547
 H         6.1864938680       -5.0343872192       -4.2687810016
 H         6.1377511058       -6.7270157995       -4.8183319237
 H         3.2764481770       -4.3829032886        0.3634087504
 H         4.2867700592       -5.4568011192        1.2703548294
 H         1.4483825361       -6.2662395883        0.4354524696
 H         1.7505202903       -5.2926844176        2.0018082010
 H         2.9357590237      -10.6260015196        1.3691973468
 H         3.3625897624      -10.2345427356       -0.2254487514
 H         1.0157183160      -12.0342177835        0.4003700999
 H         2.5932173292      -12.4739849137       -0.2858052460
 H         0.2097999724      -11.7270999549       -5.0681797322
 H         1.0906839619      -10.4535489895       -4.3374762551
 H        -1.7642234646      -10.0830338504       -5.4434351972
 H        -0.3756343141       -9.8177573084       -6.3687749178
 H        -2.0986003581       -4.7711625184       -6.2773513740
 H        -2.8768533149       -6.0577331496       -7.3071406222
 H        -0.9992987862       -5.4809552355       -9.1783964915
 H        -0.1506175522       -4.6844170873       -7.8062817391
 H        -0.0778542853       -2.2815853324       -5.9241016714
 H        -1.3682896237       -1.1394673396       -6.9257891324
 H         1.5915136674       -0.5501282910       -6.8421693326
 H         0.5991930092        0.0289223757       -5.3206634060
 H        -2.0275787630        3.6398044629       -6.3092633079
 H        -1.8624744788        2.9553520629       -7.9614757685
 H        -1.0717096627        5.4068904580       -8.6120131101
 H        -2.0468053147        5.8481793388       -7.2071224157
 H        -5.5522550959        4.5369019909      -11.5173267754
 H        -3.9080016061        5.1971651985      -11.5462676802
 H        -4.6687112353        7.2296549534      -12.7650022485
 H        -6.2941616591        6.7681562252      -12.3521554783
 H        -3.2305121642        6.0946581696      -15.7582231511
 H        -3.7058684497        7.4074522301      -16.8702662241
 H        -1.9078898030        5.9581044384      -17.4821005528
 H        -2.9915458912        5.5958296747      -18.7520866290
 H        -1.9084522894        1.0777285534      -16.5054044078
 H        -2.8876715813       -0.3604699003      -17.1583077726
 H        -3.8149063446        1.4132281849      -14.7166990489
 H        -3.0489239760       -0.1393141989      -14.7309189533
 H        -9.0934544603       -0.5475659551      -15.5724662841
 H        -7.6731581563       -0.9350335787      -16.6164408290
 H        -9.3058159286        0.3082366159      -18.0762494981
 H        -7.7151206001        0.8648756009      -17.8552156333
 H       -13.4682621901        1.9414845327      -18.4456919654
 H       -12.8974220169        0.3980790979      -18.1651782626
 H       -12.2391393097        0.3566631852      -20.7459014967
 H       -13.0591683271        1.9027554434      -20.9420369153
 H       -17.0928643042        1.3594057005      -23.5135655213
 H       -16.4548277068        3.0402275280      -23.0411159397
 H       -16.9527450419        1.8018823807      -21.8141689895
 H       -13.1251978424       -1.4816818137      -22.6108526178
 H       -12.6749598776        0.1635465158      -23.0126670890
 H       -13.8142981243       -0.6768762140      -24.0006790142
 H       -16.6217784782       -0.7332185758      -21.5769094812
 H       -15.4897385166       -1.9697704029      -22.0722594074
 H       -16.2113715192       -0.9366927161      -23.2040753641
 H       -12.4341248462        1.4939928238      -15.6753462964
 H       -10.8021247958        0.8921765453      -15.3408066547
 H       -11.5240925919        0.2081587779      -16.8361703504
 H       -10.7500785106        4.4178992343      -17.0703856089
 H       -11.1075975347        3.8978354205      -15.5798556801
 H       -12.4128712477        3.8080245568      -16.6232969386
 H        -7.2070200974       -2.2093022963      -14.7801177065
 H        -7.2417754758       -1.7919572718      -13.1289345201
 H        -5.7361220780       -2.2409968941      -13.8863521252
 H        -5.4539682589       -0.1090853295      -12.2421245486
 H        -6.8591931503        0.9555090084      -12.7010479268
 H        -5.2313256229        1.3801554921      -13.1581255167
 H        -3.2817317148        3.9232939103      -20.2944476259
 H        -4.7424524589        3.4974741785      -19.2108695940
 H        -3.9334223276        2.2901727158      -20.1395723257
 H        -1.0254951028        2.8958512951      -19.6062201877
 H        -1.7163300932        1.3303552637      -19.2037609476
 H        -0.8137897108        1.9961739664      -18.0303947837
 H        -7.9941498913        6.3969523919      -14.6829104766
 H        -7.5656695387        4.9758759661      -15.7187325482
 H        -7.7108881099        6.4250720080      -16.4876196087
 H        -4.7544372242        8.2631960140      -14.9353903187
 H        -6.4738443012        8.4345925894      -14.6264839484
 H        -5.7990017252        8.3242429942      -16.3243801668
 H        -3.6230843524        7.1964713152       -7.1479572249
 H        -5.0617106184        6.2954540893       -7.5766696759
 H        -4.9558794900        7.9433951902       -8.1457917522
 H        -2.7918973753        7.8965689962      -10.9230802865
 H        -1.8450433534        7.5345166160       -9.4298981866
 H        -3.2095476180        8.5861104883       -9.3383422866
 H        -1.0130420812        2.0555998332       -4.9502202637
 H        -0.3579730922        3.6550952736       -4.9877722868
 H         0.5391134176        2.4239758456       -4.1879908012
 H         2.3291283609        3.2883987744       -5.6292971495
 H         2.4697288687        2.7220737490       -7.1629932583
 H         2.5064715022        1.5843383409       -5.8539348504
 H        -0.7350983366       -3.7394597998      -11.0497800257
 H         0.5753395363       -4.1152189662      -10.0184057079
 H         0.8564722851       -2.5196520816      -10.8128933485
 H        -1.5636813958       -1.2172121253      -10.7620953903
 H        -0.8131732924       -0.2348053799       -9.6588659895
 H        -2.4173049723       -1.0728326678       -9.3163817257
 H        -3.2930375732       -8.5992793924       -4.3813387422
 H        -3.1387750484       -8.6003675974       -6.1662678980
 H        -3.7936869241       -7.1787064161       -5.3150676660
 H        -0.7385032235       -6.3023409620       -3.2785646457
 H        -2.4401524421       -6.1572895669       -3.5609238128
 H        -1.2231366348       -5.2355612258       -4.4065108055
 H         2.0238678648      -13.1612330449       -3.8342210955
 H         0.2655483351      -13.4593812517       -4.2147654128
 H         1.0516309848      -14.3311272433       -2.9946092187
 H        -1.2493584984      -13.6865969910       -2.1063486732
 H        -0.9945859893      -12.5657167352       -0.7574083880
 H         0.1810001885      -13.9410409257       -0.9637181572
 H         0.7270038595       -9.1290558804        3.7626543382
 H         2.2554534508       -9.6434515456        3.2174494193
 H         0.7356793946      -10.4708955997        2.6124768549
 H        -0.4907251068       -7.5441110284        2.7361877866
 H        -0.8633786054       -8.7872392131        1.5055533988
 H        -0.3950357771       -7.1211497864        1.0070361001
 H         7.2109819278       -5.3948037574       -1.4581449017
 H         6.7559460508       -7.0801514672       -1.1468050401
 H         6.6616666130       -5.9997451982        0.0997247549
 H         4.9569800253       -3.7520501860       -0.7355257809
 H         3.7812255452       -4.1336320179       -2.0363917624
 H         5.6599065312       -3.9562539864       -2.2980562488
 Na        2.1140351252       -8.4540571408       -2.4738046300
 Na       -6.3814194135        3.1015875541      -15.8998883110
