232

 C         5.9424145186       -5.9408363492       -3.9758327608
 C         4.8521925149       -6.3688853379       -2.9815672071
 O         3.9821233030       -7.0689717504       -3.4328377646
 C         5.0778727816       -5.7258969344       -1.6024182405
 C         4.0047710394       -6.4247251609       -0.5286486091
 O         3.7656615841       -7.5721633128       -0.6774864826
 C         3.5418242933       -5.5343218049        0.6946766462
 C         2.1099863205       -6.0074239344        1.0540124772
 C         2.3772091976       -7.4417534881        1.7645875504
 O         3.3931431813       -7.7251044666        2.3051668189
 C         1.2638120200       -8.4734534162        1.7423936953
 C         1.5820335302       -9.2454338744        0.3348481855
 O         1.0595458802       -8.8438367242       -0.6443444992
 C         2.5687529823      -10.4751407133        0.3672853127
 C         1.9593456035      -11.7363376091       -0.1699258535
 C         1.5153674773      -11.6283681993       -1.6699590044
 O         2.0884407201      -10.8039605067       -2.3532286219
 C         0.3103875643      -12.4788003401       -2.3746318206
 C        -0.3820777669      -11.1941119895       -3.0214647451
 O        -1.2808332416      -10.5805738871       -2.4604748216
 C         0.0747437464      -10.9280978901       -4.4709287281
 C        -0.6580969007       -9.8356116903       -5.2229511728
 C        -0.5706376527       -8.4880958329       -4.6488560900
 O         0.3078305314       -8.1756050189       -3.8601314920
 C        -1.6255389219       -7.3588726454       -5.0837560760
 C        -1.0177959264       -6.7028801121       -6.4886005701
 O         0.1486755532       -6.8224607442       -6.8014463457
 C        -1.9442742666       -5.6531685919       -7.1799342006
 C        -1.1413791964       -4.8003325919       -8.1697942945
 C        -1.7130530795       -3.4353054388       -8.6826816444
 O        -2.8213678427       -3.1207764455       -8.3369961775
 C        -0.7566903880       -2.5145477710       -9.3082612592
 C         0.2475227568       -2.0761464028       -8.1280399968
 O         1.4291344539       -2.3149333190       -8.2475273519
 C        -0.4166130342       -1.4612104238       -6.9439613969
 C         0.4824522198       -0.2522046081       -6.3769154752
 C         0.2105821105        1.1459742032       -7.1098340567
 O        -0.3210051709        1.2131450490       -8.1945663689
 C         0.6566296152        2.4954831839       -6.3222625997
 C         0.1318264031        3.6953034990       -7.1725407892
 O         0.8462710160        4.5319457620       -7.7311584676
 C        -1.4332651378        3.7598187394       -7.3709180420
 C        -1.9054966158        5.0813329527       -7.9531105256
 C        -3.0995910942        5.0597116745       -8.8772865793
 O        -3.5088209475        4.0365178140       -9.4667682167
 C        -3.8974657069        6.4366871408       -9.1474232796
 C        -5.0949868900        6.2469494779      -10.0678415673
 O        -6.2013927277        6.5496903850       -9.7497753123
 C        -4.9220450098        5.5196751193      -11.4936182581
 C        -5.3460265681        6.3889555357      -12.6719550153
 C        -5.6613486155        5.6428696092      -13.9426032955
 O        -5.7502229275        4.4452157011      -13.8556759706
 C        -6.0576510110        6.3547529749      -15.3215565886
 C        -5.1432630045        5.6698365168      -16.5115923565
 O        -5.7415890737        4.8934442836      -17.2475996141
 C        -3.6929056458        6.2279900480      -16.6204672577
 C        -2.9037137895        5.5344936569      -17.8133490073
 C        -2.6388804845        4.0398726690      -17.4216500316
 O        -2.6529779209        3.8696180239      -16.1805174106
 C        -2.8903043184        2.7267698748      -18.3557551113
 C        -3.5934792134        1.8078785435      -17.2987077878
 O        -4.7643005589        1.9933549140      -17.1521877234
 C        -2.9479835598        0.6380365707      -16.4935261530
 C        -3.7742838730        0.3848993332      -15.2054836546
 C        -4.9913443094       -0.4931786888      -15.2548031559
 O        -5.0161292601       -1.4420699094      -16.1046154605
 C        -6.2656252917       -0.2960957682      -14.4060105936
 C        -7.4117450187        0.5165790096      -15.1349334205
 O        -7.4348379944        1.6824933256      -14.8818083805
 C        -8.3609612151       -0.0784849608      -16.1739503723
 C        -8.7847041996        0.7248495135      -17.4433965539
 C        -9.3654058758        2.0967350855      -17.0991203199
 O        -8.6473519132        3.0659014921      -17.0352424583
 C       -10.8810828438        2.2931040966      -17.0554421952
 C       -11.3635664154        2.1577960680      -18.5841382050
 O       -10.7137661319        2.5270293709      -19.5242287358
 C       -12.6188298934        1.3207403292      -18.8086320922
 C       -12.7865372410        1.0436777738      -20.3342341133
 C       -14.2356510597        0.3318277499      -20.5909406365
 O       -15.1333517733        0.2407765916      -19.7493945882
 C       -14.6297832056        0.0608059252      -22.0967975893
 C       -14.9177506738        1.5270665473      -22.6243511643
 O       -14.0159916074        2.3100872427      -22.7081521596
 C       -16.3261558069        1.8457000460      -22.8630889663
 C       -13.3889754005       -0.4444509823      -22.8497706530
 C       -15.8569940677       -0.9138506608      -22.2974067764
 C       -11.4802083009        1.1117148702      -16.2009264686
 C       -11.3602294749        3.5466218125      -16.4199114465
 C        -6.7929955358       -1.7217628029      -13.9605860560
 C        -5.8765808770        0.4239376141      -13.0308679776
 C        -3.7695180193        3.2135383495      -19.5829336800
 C        -1.5145417799        2.1497069355      -18.9465594536
 C        -7.5983031255        6.0812573977      -15.3325970343
 C        -5.7560806505        7.8480154827      -15.1269453805
 C        -4.3820706949        6.9734104055       -7.7616390926
 C        -3.0428122004        7.5502089782       -9.9380193593
 C         0.0192293225        2.6581796318       -4.8721664139
 C         2.1308595319        2.5301192111       -6.1264483431
 C         0.0927683692       -3.0846010697      -10.5483542833
 C        -1.3901358701       -1.1897000199       -9.8046304282
 C        -3.0154963854       -7.9265529711       -5.1713329632
 C        -1.5936074303       -6.2429030437       -3.9804240807
 C         0.8464620488      -13.3786955727       -3.4632177701
 C        -0.5451148932      -13.3753520625       -1.4000239624
 C         1.4456133023       -9.4226722233        2.9510656278
 C        -0.1462001190       -7.8276657758        1.6164611672
 C         6.4700501406       -6.1615199656       -1.0256855783
 C         4.8870871745       -4.1524011046       -1.6549168317
 H         6.9736522701       -6.2506604332       -3.7173565176
 H         5.9008211960       -4.8314006759       -4.0958075514
 H         5.9195436390       -6.4042923327       -4.9181130573
 H         3.5321083039       -4.4923590784        0.4192074387
 H         4.2976427231       -5.6298258194        1.4188811934
 H         1.5680602195       -6.0337037560        0.1853653242
 H         1.7067767000       -5.4263004583        1.8466134335
 H         3.1578320520      -10.6272902995        1.2816238575
 H         3.2518852432      -10.1796167060       -0.3460300249
 H         1.0659935290      -11.8885845592        0.5341256861
 H         2.6241414764      -12.6494814623       -0.1457799837
 H         0.0487092120      -11.8384188454       -5.0989427571
 H         1.1125444295      -10.6804257895       -4.3665320602
 H        -1.7198923751      -10.0281320160       -5.3650459621
 H        -0.3040256905       -9.8103454670       -6.2565886839
 H        -2.5894689742       -5.0889407913       -6.4616417190
 H        -2.5686701125       -6.3899254127       -7.7252103234
 H        -1.0663163733       -5.4078243207       -9.1090185770
 H        -0.0792407525       -4.6117945617       -7.8952474830
 H        -0.3565195777       -2.2311506475       -6.1662048154
 H        -1.3234696666       -1.0609111106       -7.2557874695
 H         1.5599109673       -0.4815263521       -6.6720739423
 H         0.3293092876       -0.1261223564       -5.2863885196
 H        -1.9236443418        3.7484261357       -6.3225769534
 H        -1.8233430875        2.8734997898       -7.9030993420
 H        -1.1440431568        5.5380398206       -8.5691881413
 H        -2.1919414280        5.7455608039       -7.1075845582
 H        -5.6703378132        4.7370048904      -11.4128206652
 H        -4.0062735867        4.9937519929      -11.8141023972
 H        -4.5090408684        7.1607934688      -12.8605369404
 H        -6.1885411752        6.9916325427      -12.3614075212
 H        -3.0782125732        6.1481587275      -15.7848660170
 H        -3.9147587411        7.3146768296      -16.8489129731
 H        -1.9341909418        6.1219452412      -18.0264704868
 H        -3.4085105081        5.5187730625      -18.7372862071
 H        -1.9202950209        0.8065008261      -16.2022924228
 H        -3.0162670653       -0.2994507955      -17.1316161822
 H        -4.0584346316        1.3888478141      -14.8161536124
 H        -3.1502969798        0.0332193357      -14.3621059220
 H        -9.2682981497       -0.1652681066      -15.5394272637
 H        -8.0449509035       -1.1195706357      -16.5829835777
 H        -9.4910230143        0.1662516022      -18.0336339192
 H        -7.8904514775        0.8066926918      -18.1336299612
 H       -13.4434849388        1.7996885148      -18.2716316768
 H       -12.5398749774        0.4019015820      -18.2700835705
 H       -12.0225297755        0.1882369952      -20.5537618759
 H       -12.7080558287        1.8213333973      -21.0689603636
 H       -16.6839469085        1.2670455154      -23.6712950589
 H       -16.3660821476        2.9494848158      -23.0900564489
 H       -16.8891989630        1.5021122944      -21.9913542333
 H       -12.8228715553       -1.2002748117      -22.3260920018
 H       -12.7100792735        0.3393543627      -23.0621225509
 H       -13.7409219473       -0.8379082925      -23.7584506302
 H       -16.8091518624       -0.6809786808      -21.7507500041
 H       -15.5037747223       -1.9036792909      -21.9657837626
 H       -16.1835690329       -1.0931824301      -23.2813478271
 H       -12.5643867174        1.2849181212      -16.0720106017
 H       -11.0442111860        1.2247938627      -15.2249817349
 H       -11.1973876401        0.2258312941      -16.7511496965
 H       -10.9207481168        4.4567614428      -16.8169519605
 H       -10.9842999812        3.6736645574      -15.3933753112
 H       -12.4729684372        3.6037011046      -16.2185569174
 H        -7.4636279601       -2.0515139392      -14.7452280208
 H        -7.3784351376       -1.8090009873      -13.0148705305
 H        -6.0460556899       -2.5202997607      -13.9377338149
 H        -5.7069162354       -0.2587464380      -12.2839297013
 H        -6.5887625649        1.1957565573      -12.7429753290
 H        -4.9024408014        0.9187908126      -13.2329335268
 H        -3.1244468190        3.6371934518      -20.3229481264
 H        -4.4865823996        3.9061579004      -19.3475358677
 H        -4.3528980691        2.4030342363      -20.0374838233
 H        -0.9835966800        2.9653263418      -19.2764486832
 H        -1.7173539615        1.4307866472      -19.7528798558
 H        -0.9610503065        1.5825620574      -18.2624140519
 H        -7.8387202282        6.2754300224      -14.3153031278
 H        -7.8578628363        5.0786736334      -15.7800621032
 H        -8.2106490053        6.7662597402      -15.9985474201
 H        -4.7611943607        7.9040527869      -14.6519354775
 H        -6.4773700607        8.2944515081      -14.4449544271
 H        -5.6477947547        8.4246034247      -16.0820363795
 H        -3.5999235854        7.0967776929       -7.0340526588
 H        -5.1710197042        6.3243892808       -7.3566676728
 H        -4.9494549314        7.9058298791       -8.0187972941
 H        -3.2442695733        7.6550577445      -10.9781368039
 H        -1.9553586368        7.3957148809       -9.7422493898
 H        -3.2476055187        8.4841296758       -9.4916700038
 H        -1.0103049752        2.5644836920       -4.9591319529
 H         0.2858204991        3.6858260078       -4.5495949514
 H         0.4122368908        1.9900598881       -4.1157852961
 H         2.3456700272        3.5392683345       -5.8565914381
 H         2.6289726382        2.3654030597       -7.0372288897
 H         2.5283154267        1.9261787575       -5.3150834601
 H        -0.6386769537       -3.0177288116      -11.3282271092
 H         0.4121780998       -4.1868335331      -10.6053584612
 H         0.9421702135       -2.3773858865      -10.5774295023
 H        -1.6058275119       -1.2259850862      -10.8830549939
 H        -0.7588688954       -0.3228150108       -9.7378287879
 H        -2.4285002673       -0.9948268869       -9.3329932200
 H        -3.3615271369       -8.3197131188       -4.2119495495
 H        -3.2305089502       -8.6842864172       -5.9600158988
 H        -3.7539985473       -7.0684716642       -5.4078211404
 H        -1.2399103428       -6.5601479546       -2.9951283277
 H        -2.5872586732       -5.9241745812       -3.8297868186
 H        -0.9275767260       -5.3650780437       -4.1361966157
 H         1.4995875008      -12.8767518063       -4.1761551479
 H        -0.0017646245      -13.7786711825       -3.9689854354
 H         1.4124556685      -14.3046683558       -3.0654605472
 H        -0.9668044985      -14.2000205591       -1.9580361521
 H        -1.3380649231      -12.8674457037       -0.9141444980
 H         0.2373284652      -13.7065046044       -0.6078179254
 H         0.9150587847       -8.8995971412        3.8010847943
 H         2.4422663629       -9.2899611491        3.2759436963
 H         1.0883542148      -10.4690713461        2.8332190425
 H        -0.7039165695       -7.7177775161        2.5366206545
 H        -0.7093193179       -8.4706338414        0.9727792269
 H        -0.0363356352       -6.8956466534        1.0949556078
 H         7.2457248941       -5.7384294496       -1.6254335829
 H         6.6713803778       -7.2164999332       -0.8550397855
 H         6.6805368388       -5.6993276526       -0.0349722775
 H         5.6268776075       -3.6284434525       -1.0116958261
 H         3.8339920079       -3.9361646692       -1.3747566677
 H         5.1776042217       -3.7956066755       -2.6195220227
 Na        2.2284598896       -8.3693286970       -2.5319714365
 Na       -6.3544691682        3.2670016100      -16.0175672754
