232

 C         5.3164689175       -5.6364356742       -4.6128104579
 C         4.7493441146       -6.3876638011       -3.4614177715
 O         4.1198595470       -7.3983687167       -3.7210787575
 C         5.0423208191       -5.8890468623       -2.0375910359
 C         4.1267354274       -6.5662182986       -0.9761853104
 O         3.6331473163       -7.6726094658       -1.0988640035
 C         4.0264393717       -6.0144860450        0.5003055676
 C         2.6549035288       -6.1489009771        1.0061956778
 C         2.5636933947       -7.4787414196        1.9120457431
 O         3.4950149352       -7.6590647896        2.6425372799
 C         1.4018754389       -8.4073129745        1.7587572469
 C         1.6133109808       -9.0856812645        0.3771247689
 O         1.1125504175       -8.6742289172       -0.6349749758
 C         2.6737223497      -10.2454080163        0.3248974088
 C         2.0455254465      -11.6323212908       -0.2223104852
 C         1.7198573623      -11.5716725511       -1.6428155480
 O         2.5656010804      -11.1235334928       -2.4360765718
 C         0.3471038648      -12.2584721647       -2.2336367292
 C        -0.5170916876      -11.1894420703       -3.0587625460
 O        -1.7200195459      -11.0440499625       -2.7822533717
 C         0.1165777975      -10.7206191243       -4.3592554328
 C        -0.5317112543       -9.5934872104       -5.1513205295
 C        -0.3926276242       -8.2313876747       -4.5985766542
 O         0.4251584699       -7.9514641017       -3.7491964473
 C        -1.2998422031       -7.0962147962       -5.1083124993
 C        -0.5756525303       -6.5245116170       -6.3630474719
 O         0.5541981845       -6.8174186192       -6.6559445229
 C        -1.3757139798       -5.5600790896       -7.1868387567
 C        -0.5591102424       -4.7338331768       -8.2583971646
 C        -1.4425767288       -3.5896005414       -9.0017115268
 O        -2.6586280537       -3.7220543337       -9.0164795379
 C        -0.6661345698       -2.3846448266       -9.5519025272
 C         0.1041522420       -1.6651625933       -8.3128096376
 O         1.2610044238       -1.7954840141       -7.9588230953
 C        -0.8577626576       -0.8284940445       -7.4004068597
 C        -0.0285484989        0.1622921439       -6.5477278256
 C         0.2860896387        1.4411660156       -7.4264393221
 O         0.2430058000        1.4451575989       -8.6301889903
 C         0.7685586078        2.7784912254       -6.6144466181
 C         0.2687339847        4.0580520612       -7.2538540388
 O         1.0784936327        4.8949333539       -7.5739120183
 C        -1.1831453649        4.1054584247       -7.4870726727
 C        -1.8296691987        5.2785917748       -8.1751334995
 C        -3.0963932892        4.9120015433       -8.8406165653
 O        -3.3292004423        3.7670352137       -9.3138323429
 C        -4.1437861020        6.0470668473       -9.0785235566
 C        -5.2201857301        5.5946769650      -10.1610025531
 O        -6.3843484298        5.7052500756       -9.9488157616
 C        -4.7665228639        5.3421358900      -11.7711586114
 C        -5.7487774471        6.1556962212      -12.5993088310
 C        -5.7886152257        5.7094275095      -14.0305611094
 O        -5.6187235804        4.5151874125      -14.3020193890
 C        -6.0938487709        6.7316214867      -15.0499557481
 C        -5.5352856376        6.1441836097      -16.4137819109
 O        -6.3529932557        5.5921951934      -17.1332874700
 C        -4.0733606259        6.1011298163      -16.7220146724
 C        -3.5766860705        5.1275947563      -17.7196496937
 C        -3.0415763793        3.7578319210      -17.2188733951
 O        -2.4144649053        3.6777216856      -16.1403308900
 C        -3.3767450826        2.5044737393      -17.9840408893
 C        -4.1084806492        1.7073750112      -16.7920460615
 O        -5.2894989602        1.5666159203      -16.7976518614
 C        -3.2980232064        0.8577941353      -15.7531989467
 C        -4.2513166623        0.3019248870      -14.6466796098
 C        -5.2171950242       -0.8110102484      -14.9936081993
 O        -5.0874579979       -1.6549625859      -15.9385588775
 C        -6.5319744987       -0.9377562472      -14.1857822718
 C        -7.3326393349        0.2390707624      -14.8598140321
 O        -7.1490902588        1.4201406646      -14.6108191575
 C        -8.2897457940       -0.1989017679      -16.0429103246
 C        -8.5100995714        0.9240143087      -16.9819440028
 C        -9.3176826217        2.2080630431      -16.6064434110
 O        -8.7477055501        3.2955174714      -16.5490205365
 C       -10.8719717389        2.2141778402      -16.5469011678
 C       -11.3268010003        2.1537637221      -18.0352107901
 O       -10.8193160697        2.9345718023      -18.8406688847
 C       -12.4178201797        1.1363636119      -18.5684297113
 C       -12.7471369885        1.2526130602      -20.0791855058
 C       -14.0847963786        0.6030859141      -20.6016573191
 O       -14.8698761869        0.1902566013      -19.7171384247
 C       -14.3246285369        0.3383470967      -22.1481150662
 C       -14.6646461466        1.7271796404      -22.9312333943
 O       -14.0560127370        2.7612950648      -22.7088625163
 C       -15.7467156780        1.8462953168      -23.9730558113
 C       -13.0935422958       -0.2640161207      -22.8571666778
 C       -15.4801746467       -0.6197479335      -22.2880053349
 C       -11.4603865641        0.8577673941      -15.8776401613
 C       -11.4002851323        3.4766486743      -15.8745193439
 C        -7.2419628334       -2.2241447621      -14.4052858060
 C        -6.4983770806       -0.5473228941      -12.7012394540
 C        -4.3913099330        2.4852640824      -19.1250210654
 C        -2.1265475908        1.8048406474      -18.4770542109
 C        -7.5857676270        6.9309238204      -15.1903634520
 C        -5.2498605045        8.1311968026      -14.8245399211
 C        -4.9049948910        6.6201692159       -7.8114854133
 C        -3.4923761286        7.2588154815       -9.7687073478
 C         0.2459623812        2.7027243726       -5.0980854560
 C         2.2782063877        2.8433394518       -6.8180362061
 C         0.2466921934       -2.9492001044      -10.6418201145
 C        -1.7617703847       -1.4998236592      -10.1512512688
 C        -2.7087617258       -7.6077277178       -5.5482169453
 C        -1.4782699095       -6.0743298144       -3.9685366680
 C         0.5851534248      -13.3821727124       -3.2339331140
 C        -0.5128093242      -12.7770887635       -1.0478490772
 C         1.4499420645       -9.5923524821        2.9013404121
 C         0.0185363249       -7.5878676136        1.7012491329
 C         6.5079335537       -6.4954658791       -1.6610062220
 C         4.9924926513       -4.3593790328       -1.9065462950
 H         4.6118768043       -5.6541986008       -5.4617824830
 H         6.2697091792       -6.0342995371       -5.0400730026
 H         5.6097003200       -4.6283952088       -4.4646538335
 H         4.3070199791       -4.9130148713        0.4519746693
 H         4.8666376112       -6.4844396064        1.0902687370
 H         1.9061800764       -6.2069392174        0.1851677335
 H         2.3279177313       -5.2747408284        1.6895023412
 H         3.0570124734      -10.5042448926        1.3821912389
 H         3.3023694541       -9.7986106728       -0.4687194316
 H         1.3457303526      -11.9872469473        0.4953931246
 H         2.7137933646      -12.4457220784       -0.1920380049
 H         0.2967204872      -11.6522886952       -4.9342728953
 H         1.1303327373      -10.2795606168       -4.0754003392
 H        -1.6281183791       -9.6943329057       -5.2398825799
 H        -0.1332136226       -9.5722534770       -6.2059108878
 H        -2.0062386683       -5.0041184079       -6.4383163774
 H        -2.1154595690       -6.1849408649       -7.5637577206
 H        -0.2341210876       -5.4580857185       -9.0464063475
 H         0.2738769809       -4.3678401420       -7.7502239853
 H        -1.5819180273       -1.5555240838       -6.8119409222
 H        -1.6000056301       -0.3029226039       -7.9977975020
 H         0.8138656438       -0.3775920498       -6.2325274972
 H        -0.4749848238        0.5037697343       -5.6654897962
 H        -1.7475290736        3.9578882299       -6.4871439233
 H        -1.4323976719        3.2231423531       -7.9623925506
 H        -1.2322603363        5.6719718553       -9.0062680525
 H        -2.0729084810        6.1015303831       -7.4350555876
 H        -4.8591936183        4.2559488797      -12.0050715664
 H        -3.6997067648        5.4996438795      -12.1280968397
 H        -5.6639930660        7.2923570554      -12.4848681771
 H        -6.6981703091        5.9093358752      -12.1934612472
 H        -3.5777863902        5.7784149535      -15.7917272400
 H        -3.5827055150        7.1208261515      -16.8770360227
 H        -2.7371821990        5.7156728681      -18.1893387195
 H        -4.2658466855        4.9014542761      -18.4642711675
 H        -2.5112765824        1.3472360847      -15.2791098898
 H        -2.7749019037        0.0138135549      -16.2525253281
 H        -4.8307817096        1.1340753442      -14.2687850824
 H        -3.6145213795        0.0989299789      -13.7767995520
 H        -9.1801581818       -0.5793280154      -15.6849613821
 H        -7.9639795155       -1.1154664932      -16.5391493776
 H        -8.9987623689        0.4783070713      -17.8686851316
 H        -7.4959470516        1.2526151627      -17.3471112315
 H       -13.3223202570        1.3665486278      -17.9581977365
 H       -12.0095418192        0.0917726418      -18.3800440096
 H       -11.9358112197        0.7152793410      -20.5666655869
 H       -12.7400617828        2.2544456350      -20.4832315200
 H       -15.6383600668        1.2405126872      -24.8341337416
 H       -15.8060263086        2.9213612787      -24.2083859264
 H       -16.6618684790        1.5694402523      -23.4172699522
 H       -12.7344583518       -1.1334307315      -22.1972110188
 H       -12.2831288017        0.5139176849      -22.9374259678
 H       -13.3878111968       -0.7479353134      -23.8059876612
 H       -16.4820076395       -0.1463107961      -22.0083263078
 H       -15.3775810590       -1.5898174443      -21.7039420973
 H       -15.6019163427       -0.8213047155      -23.3439321941
 H       -12.5345465901        0.8926833273      -16.0050821979
 H       -11.0543491605        0.9375244784      -14.9133185495
 H       -10.9789577720        0.0239302012      -16.3545522184
 H       -11.4053140401        4.3551624760      -16.4711845019
 H       -10.8489247386        3.6620924610      -14.9702978139
 H       -12.4683507967        3.4701300148      -15.5870659916
 H        -7.4105111259       -2.3537130449      -15.4587731313
 H        -8.1438700462       -2.3463851431      -13.7530767822
 H        -6.5296231704       -3.0602679208      -14.2422772740
 H        -7.3967832746       -0.4434369012      -12.1747516856
 H        -5.8161066429        0.3320731947      -12.5700795812
 H        -5.8316044102       -1.3338975206      -12.1891608338
 H        -3.7730245901        2.5967651102      -20.0302530463
 H        -5.1526592102        3.1934142588      -19.0418201614
 H        -4.8352886161        1.3998627946      -19.1252869662
 H        -1.6994834762        2.2702116475      -19.3563387821
 H        -2.4651866692        0.8457561592      -19.0333129642
 H        -1.3254240827        1.6724719853      -17.7261569406
 H        -7.9500551454        7.7884145187      -14.7236383264
 H        -8.1516221191        6.0706357269      -14.7800186380
 H        -7.7509977685        7.1621298382      -16.2509764733
 H        -4.1854425626        7.8691873496      -14.8589989260
 H        -5.4313892812        8.6959934883      -13.9276792092
 H        -5.4717701667        8.7722574097      -15.7216267085
 H        -4.1196644752        6.7786664897       -7.0822621677
 H        -5.6426774096        5.8674467448       -7.4528254872
 H        -5.3896900424        7.5990420273       -7.9910153313
 H        -3.2418079370        7.1553777614      -10.8209834541
 H        -2.5366892125        7.5027908228       -9.2545324467
 H        -4.1835254913        8.0601555174       -9.6629753081
 H        -0.8018892216        2.4157792112       -4.8677820283
 H         0.2457309244        3.7883312806       -4.6497969972
 H         0.9067163061        2.1099282351       -4.4219432036
 H         2.7503569458        3.3709598734       -5.9178050919
 H         2.5833870977        3.4184771185       -7.7477789574
 H         2.7818675627        1.8219039573       -6.9245591098
 H        -0.1687632848       -3.7538434694      -11.1101342840
 H         1.2162957490       -2.9958676760      -10.1468575430
 H         0.1608927188       -2.2383664238      -11.4193226388
 H        -2.1815244687       -1.9032635459      -11.0360781921
 H        -1.4989852859       -0.4731042867      -10.1139276710
 H        -2.6375175794       -1.3653610185       -9.4215881195
 H        -3.3001406238       -8.0851824152       -4.7908710371
 H        -2.6867612612       -8.2522233722       -6.3873102454
 H        -3.3266790824       -6.7698957023       -5.8872823576
 H        -0.7097182843       -5.3142581063       -4.1204683265
 H        -1.5673363534       -6.5644995106       -3.0255301452
 H        -2.4574717901       -5.5043572297       -4.0344032287
 H         1.3947825266      -13.1397473802       -3.9144298905
 H        -0.2877951673      -13.5860631846       -3.7794366478
 H         0.8669134785      -14.2889563293       -2.5809427147
 H        -1.1873624486      -13.5026141580       -1.4187643199
 H        -0.9638373906      -11.9965311172       -0.5244834518
 H         0.2081503758      -13.3335286004       -0.3463060852
 H         0.8860912193       -9.2115368199        3.7754002065
 H         2.4650003298       -9.8339181252        3.0344278082
 H         0.9620132949      -10.5299943822        2.5518197620
 H         0.3599810196       -6.5723571469        1.7908871029
 H        -0.5065904081       -7.9504370901        2.5804353489
 H        -0.5109187163       -7.7239424561        0.7662809160
 H         7.2917599136       -6.3005766330       -2.3953317431
 H         6.5116233769       -7.5807968334       -1.5988513001
 H         6.8847193231       -6.0861284883       -0.7049607578
 H         5.4018325230       -3.7519781236       -2.7193805834
 H         5.4701628573       -3.8769159896       -1.0478023293
 H         3.9656189196       -4.0792650948       -1.7590620814
 Na        2.3704367801       -8.6725039458       -2.8424152550
 Na       -6.3997591641        3.3985131917      -16.1350423177
