232

 C         5.2981781539       -5.6591020977       -4.6752077904
 C         4.6426479700       -6.4209681028       -3.5210827322
 O         3.8728013789       -7.3733988727       -3.7733151268
 C         5.0226821999       -6.0168667006       -2.0390330230
 C         4.2350811151       -6.7491884994       -0.8728810121
 O         3.5717190903       -7.7793525008       -0.9912579962
 C         4.1416374432       -6.0435525985        0.5003494496
 C         2.7521863920       -5.9881583099        1.0169349735
 C         2.5541152335       -7.3555992498        1.8808519500
 O         3.5642750460       -7.6393613318        2.5778161485
 C         1.4570175068       -8.3687201746        1.6612327659
 C         1.6885947094       -9.1250661199        0.3296763920
 O         1.0265153691       -8.7972785306       -0.6391864724
 C         2.7224431567      -10.3129430323        0.2616206786
 C         2.0213272496      -11.5546170852       -0.2880917295
 C         1.6712592250      -11.5281829371       -1.7665369974
 O         2.3941374978      -11.0438922045       -2.6510253756
 C         0.3316211115      -12.2926604573       -2.2002472343
 C        -0.5563785000      -11.2609522245       -3.1158316167
 O        -1.6551465944      -10.9984156153       -2.7335511509
 C         0.1794043337      -10.7535383113       -4.4073684881
 C        -0.4068347734       -9.5767720398       -5.1597874691
 C        -0.2972597473       -8.2478096811       -4.4687313278
 O         0.5372933713       -7.9147901273       -3.6528685843
 C        -1.2171889898       -7.0561629320       -5.0461430665
 C        -0.5188896264       -6.4570589506       -6.3817425095
 O         0.5914574025       -6.8549268600       -6.6644798334
 C        -1.3986861525       -5.4899782041       -7.2385869217
 C        -0.4996809399       -4.6367247177       -8.1075659415
 C        -1.3728432312       -3.6221823068       -8.9479655676
 O        -2.5488226076       -3.7148746452       -9.1090946984
 C        -0.5852388679       -2.3678446377       -9.5709303482
 C        -0.0021770231       -1.6476879718       -8.3793874243
 O         1.1615137720       -1.8164458586       -8.0312213606
 C        -0.9107648474       -0.7100448079       -7.5533789497
 C        -0.1744988858        0.2473068175       -6.7154155976
 C         0.2239246774        1.4561979751       -7.4584773420
 O         0.2288645878        1.4685579241       -8.6734706514
 C         0.8560875947        2.7295830677       -6.6960902549
 C         0.2799591723        4.0868238093       -7.3206532872
 O         0.9621105193        5.0456198857       -7.4522712547
 C        -1.2546357512        4.0949615921       -7.5097789345
 C        -1.7598844775        5.2452506082       -8.3324050751
 C        -3.1763853433        4.9132392704       -8.8830850305
 O        -3.3791997845        3.8359786259       -9.3142500037
 C        -4.2402812934        6.0921876436       -9.1107633208
 C        -5.2020396504        5.6022160302      -10.1845699080
 O        -6.3999093380        5.4507680310       -9.9780879087
 C        -4.8844261364        5.3118486883      -11.6020656149
 C        -5.8267080509        6.1178987931      -12.4950483715
 C        -5.7901590639        5.7504715050      -13.9907058133
 O        -5.7139155984        4.5417704808      -14.2115995772
 C        -6.0188202061        6.8052679270      -15.2439241462
 C        -5.5170380821        6.0647165060      -16.5321381245
 O        -6.3640631942        5.4555178303      -17.2337045975
 C        -4.0258610849        6.1135905293      -16.7537201451
 C        -3.6068858293        5.0469151712      -17.8072574104
 C        -3.2248909229        3.6459666547      -17.1246129229
 O        -2.5223304389        3.6281470180      -16.1840307747
 C        -3.4675752370        2.2698548868      -17.9687292603
 C        -4.1024028319        1.3796062743      -16.7878009668
 O        -5.2904680293        1.6192794395      -16.6492737922
 C        -3.3498561039        0.8133649435      -15.6051087858
 C        -4.2981933931        0.3132306230      -14.4741200422
 C        -5.2232150050       -0.7939638638      -15.0108221137
 O        -4.9347507070       -1.6162921314      -15.7887023099
 C        -6.6535963100       -0.8751453830      -14.2735654921
 C        -7.4530246628        0.3644458782      -14.9098966869
 O        -7.1132681991        1.4628224039      -14.5635731889
 C        -8.3705851670       -0.0113749178      -16.0747998976
 C        -8.5169294174        1.0692127106      -17.1185815444
 C        -9.3957990114        2.1818135234      -16.5920514603
 O        -8.8361349743        3.2309771598      -16.2626165724
 C       -10.9175920754        2.0831601439      -16.5088676170
 C       -11.3042110176        2.1664259153      -18.1455229055
 O       -10.7178554662        2.9830819134      -18.7675739119
 C       -12.3896478609        1.1343451068      -18.6325891543
 C       -12.7657825314        1.4296306552      -20.0525037461
 C       -13.9830860708        0.5690529476      -20.5097407247
 O       -14.8178427625        0.1807653232      -19.7354160154
 C       -14.2666483725        0.3840089187      -22.1590483195
 C       -14.6148111271        1.8179091752      -22.9104197284
 O       -13.9434596841        2.7850089390      -22.5951107822
 C       -15.6963620455        1.8147564285      -24.0706788600
 C       -12.9554207086       -0.1951935370      -22.7012075153
 C       -15.5400571131       -0.5485530335      -22.3273878298
 C       -11.5510637448        0.8187673551      -15.7300531588
 C       -11.5170791676        3.3021902283      -15.9007006265
 C        -7.3145590267       -2.3184469425      -14.5188100528
 C        -6.4554839994       -0.6387777265      -12.7096998506
 C        -4.5480218731        2.4596232009      -19.1137872966
 C        -2.0601264234        1.9557396826      -18.4261643265
 C        -7.5160458066        7.0757573627      -15.0906892300
 C        -5.1056344561        8.0777905414      -14.9136177716
 C        -5.0156231149        6.4334596273       -7.8007876017
 C        -3.3945473331        7.3121411079       -9.6654166686
 C         0.4175749550        2.7763389643       -5.2546491003
 C         2.3829226957        2.6551894791       -6.8246063448
 C         0.4027729473       -2.7866221046      -10.7028424322
 C        -1.6844278350       -1.4346683427      -10.1584117572
 C        -2.6162504452       -7.6498254435       -5.4710105650
 C        -1.4559124251       -6.0227747150       -3.9531407108
 C         0.7177818740      -13.5338061962       -3.0448807935
 C        -0.5214923563      -12.7951173313       -1.0296103345
 C         1.4901552750       -9.4190518486        2.8226729124
 C         0.0627471686       -7.5889429660        1.7379726294
 C         6.4456753230       -6.4591650502       -1.7855931187
 C         4.9907014622       -4.4798473927       -1.9712524016
 H         4.5141648526       -5.1442505283       -5.2545837880
 H         5.7448415470       -6.2297871520       -5.4120679412
 H         6.0717900591       -4.9169328011       -4.4083603058
 H         4.7663884906       -5.1009084747        0.4248698566
 H         4.8236263300       -6.6787734430        1.1232063519
 H         1.9409780277       -5.9983467529        0.1974091121
 H         2.5248506648       -5.1155042957        1.7003427108
 H         2.9932297655      -10.5651545329        1.2526466648
 H         3.4676084888      -10.0042804009       -0.4674165729
 H         1.2190705495      -11.7323290989        0.3819962264
 H         2.5506437947      -12.4474085885       -0.1361059130
 H         0.2073382351      -11.6476489603       -5.0985642045
 H         1.1847088973      -10.5218379155       -4.1258925991
 H        -1.4515660317       -9.7700852130       -5.4165122704
 H         0.1100654214       -9.4265821705       -6.1030013459
 H        -2.0714891969       -4.9756568780       -6.5582410973
 H        -2.1244882641       -6.1370979402       -7.7997056494
 H         0.1096248782       -5.2547198576       -8.7568400569
 H         0.1538443095       -4.0528025289       -7.3787419917
 H        -1.5156906686       -1.4023187527       -6.8608468767
 H        -1.8222115090       -0.2126014278       -8.0706116699
 H         0.7018028807       -0.2508017830       -6.2484533098
 H        -0.7386477469        0.5591757524       -5.8394534977
 H        -1.7447944418        4.0825352961       -6.5590645902
 H        -1.6560930949        3.0883270996       -7.9748641623
 H        -1.1585526831        5.3417531354       -9.2455206358
 H        -1.7202275906        6.1887028710       -7.7836467456
 H        -4.8750967468        4.2186835356      -11.6750678946
 H        -3.9186156301        5.5964687355      -11.9474509126
 H        -5.6420461620        7.1886878916      -12.2594476373
 H        -6.8613695303        5.9762805028      -12.2653464488
 H        -3.4143841212        6.0615988495      -15.8660143655
 H        -3.8978831500        7.2098384161      -17.0869206055
 H        -2.7653626039        5.3689315076      -18.3734973003
 H        -4.4171486668        4.8662995309      -18.5010126155
 H        -2.7281655160        1.6743539984      -15.2340850245
 H        -2.5724690881        0.0228523073      -15.7799996354
 H        -4.8756433357        1.1754662034      -14.0892172774
 H        -3.6757222809        0.0319818460      -13.6168085142
 H        -9.2690523729       -0.3622348737      -15.6488598658
 H        -8.0506931544       -0.9561765738      -16.4396723692
 H        -8.9548652212        0.6966242207      -18.0138487735
 H        -7.5004954199        1.4256692139      -17.3346871710
 H       -13.3233866584        1.3013372456      -18.0510011012
 H       -11.9778536122        0.1508275757      -18.4917849929
 H       -11.8764411895        1.3031952374      -20.7343537338
 H       -13.1229549162        2.3832838287      -20.1775834048
 H       -15.2484121141        1.1045400197      -24.7788835242
 H       -15.8632518132        2.7720373319      -24.4869937276
 H       -16.6832570941        1.3761179551      -23.6728875152
 H       -12.6081390888       -1.0180401082      -21.9878105534
 H       -12.1420238370        0.6352594065      -22.7929120686
 H       -13.1376740982       -0.7409835770      -23.6291069918
 H       -16.4566964620       -0.1647377121      -21.8736675767
 H       -15.3288900221       -1.4253142806      -21.7696536581
 H       -15.7866006732       -0.8421385548      -23.4000459774
 H       -12.5538478822        1.1368684922      -15.6751717037
 H       -10.9347535364        0.7284884258      -14.7741030293
 H       -11.3924931964       -0.0851094736      -16.3129110480
 H       -11.5619932004        4.0773705564      -16.6020085992
 H       -11.0079470909        3.6792278513      -15.0732561347
 H       -12.5951520185        3.2710026830      -15.6742071133
 H        -7.5405335455       -2.4736188015      -15.5710595326
 H        -8.1481454445       -2.5958318918      -13.8719978736
 H        -6.4982760496       -3.0209358589      -14.3959107259
 H        -7.3203547642       -1.0157251920      -12.0696054102
 H        -6.1819813167        0.3883713186      -12.3734192057
 H        -5.5865361656       -1.1977708718      -12.4146365666
 H        -3.9633882536        3.1488250020      -19.7742439254
 H        -5.5068573745        2.9766192542      -18.7216947793
 H        -4.7579165143        1.5124752526      -19.6656249759
 H        -1.5297198464        2.8812492825      -18.7602397537
 H        -1.9604809410        1.4141127761      -19.3965023339
 H        -1.4536566487        1.5349710066      -17.5898338992
 H        -7.7823863332        7.6136924612      -14.1815237713
 H        -7.9699512102        6.1263746104      -14.9435488849
 H        -7.9088758873        7.6550839028      -15.8574760877
 H        -4.0086394813        7.9301143106      -14.8064889550
 H        -5.5264883899        8.5419041074      -14.0368557075
 H        -5.3247513787        8.7927971400      -15.6612976598
 H        -4.2425539534        6.7910216981       -7.1334355898
 H        -5.5106074981        5.5645988152       -7.3767752713
 H        -5.7039955828        7.3196873759       -7.9795783957
 H        -2.8924349710        7.0228686365      -10.5775113482
 H        -2.5261203010        7.5621032710       -8.9858979928
 H        -4.0648926673        8.1613657868       -9.9008147676
 H        -0.6338131440        3.1512701851       -5.0684090519
 H         0.9751733025        3.6205993694       -4.8050860710
 H         0.5263511756        1.9458218305       -4.6350140214
 H         2.8858803753        3.4091836535       -6.1810704174
 H         2.7112468418        2.8515764082       -7.9198827644
 H         2.7755579153        1.6751913962       -6.6089262584
 H        -0.1889148988       -3.2353670427      -11.5528240350
 H         1.3140119076       -3.1683241833      -10.2810332409
 H         0.5275803928       -1.8143534526      -11.1552172388
 H        -2.2048362755       -1.8934856245      -10.9947220685
 H        -1.3940533927       -0.4347385300      -10.2116593153
 H        -2.4840490803       -1.2834621756       -9.4536699774
 H        -3.0045733991       -8.5347170673       -4.8333019201
 H        -2.6964645537       -7.9843735022       -6.4472023974
 H        -3.3762015218       -6.8730287684       -5.3801524087
 H        -0.5116088020       -5.7344276619       -3.5413530283
 H        -2.2454069610       -6.4579907781       -3.3258570673
 H        -1.9501250219       -5.0933425355       -4.3163828217
 H         1.6903507630      -13.3862606172       -3.4489326907
 H         0.0546718866      -13.4974265879       -3.8848490537
 H         0.6511963862      -14.5040762868       -2.4880498997
 H        -1.4373458280      -13.2990919812       -1.4215021315
 H        -0.7215224345      -11.9992996539       -0.3053807594
 H         0.0510852630      -13.5720068418       -0.5913784226
 H         0.9320318151       -8.9865057037        3.6361044934
 H         2.4989449406       -9.6442561991        3.0441661864
 H         1.0403266497      -10.3531109367        2.5693437705
 H         0.3688303648       -6.5397830127        1.7332911910
 H        -0.4535983102       -7.9619630081        2.6216255138
 H        -0.4786671754       -7.7854761783        0.7824026418
 H         7.0058273959       -6.0419669972       -2.5693009320
 H         6.6367418941       -7.5265455035       -1.9733468271
 H         6.9593924813       -6.1782367459       -0.8439836710
 H         5.8017778144       -4.0771789365       -2.6432453578
 H         5.1738874377       -3.9347981522       -1.0675320674
 H         4.0663722571       -4.0789984060       -2.2783543949
 Na        2.3891029395       -8.6757606586       -2.7469815499
 Na       -6.5495161487        3.3705142466      -16.0583558333
