232

 C         5.2194131913       -5.8491406446       -4.7942051957
 C         4.5003894587       -6.5771523743       -3.6281679873
 O         3.5309357086       -7.2746403023       -3.7821089921
 C         5.0868018865       -6.0311368814       -2.1889746106
 C         4.3340478195       -6.6035814362       -0.8648971955
 O         3.8175603396       -7.7072996761       -0.9466343176
 C         4.3459869521       -5.9421223278        0.4724186338
 C         2.9162977107       -6.0238760280        1.0997810045
 C         2.8217841431       -7.3426632105        1.9008155072
 O         3.6290087184       -7.7896625356        2.6159123816
 C         1.5126753479       -8.3738493108        1.5790413772
 C         1.6868895362       -9.1361622653        0.3095346815
 O         0.9305761970       -8.8593447815       -0.6240102155
 C         2.7424466309      -10.2527174880        0.1847625164
 C         2.0305094755      -11.5588541724       -0.2632927314
 C         1.5210143477      -11.5636820901       -1.7081245396
 O         2.2801977883      -11.0213580154       -2.4993746220
 C         0.3382297025      -12.3433329248       -2.2371821123
 C        -0.3948404512      -11.3559370421       -3.2736506030
 O        -1.3991047964      -10.7973827652       -2.8269253752
 C         0.1889146787      -10.9714095253       -4.7108705007
 C        -0.3570408878       -9.5568353491       -5.1659776182
 C        -0.2501597429       -8.2036711525       -4.4484839251
 O         0.5692367534       -7.9170275742       -3.5804245177
 C        -1.2516479204       -7.0883822771       -5.0551186912
 C        -0.5466853121       -6.4578268272       -6.3352984645
 O         0.5630637293       -6.8134161145       -6.6398483347
 C        -1.2896673720       -5.4180231361       -7.1981913130
 C        -0.4019396034       -4.3948351744       -7.9724900301
 C        -1.2727958051       -3.5558825247       -9.0300910895
 O        -2.4073215852       -3.9404075981       -9.1970383502
 C        -0.6642665421       -2.2840324665       -9.7438838402
 C        -0.0502763537       -1.4705193575       -8.4421582260
 O         1.0537576170       -1.7586386130       -8.0396197117
 C        -1.0277475589       -0.6243712681       -7.6176935308
 C        -0.3374938162        0.4428224005       -6.7529297941
 C         0.2965634158        1.6036215719       -7.5123085654
 O         0.1590911411        1.5681626212       -8.7197820469
 C         0.9414622642        2.7382158633       -6.7704824576
 C         0.2589616833        4.1369639492       -7.3054169971
 O         0.8459462368        5.1885510401       -7.3802235794
 C        -1.2095856165        4.0379128457       -7.6960207437
 C        -1.8015267844        5.1733633124       -8.5708332305
 C        -3.2384191463        4.9106016806       -8.9766307290
 O        -3.6131074776        3.7570449806       -9.3133644172
 C        -4.2423525544        6.0946856142       -9.1396896344
 C        -5.2960427018        5.5629770006      -10.0804151481
 O        -6.3447790342        5.1855764812       -9.7031900535
 C        -4.9524311358        5.4107376667      -11.5675169588
 C        -5.8092580346        6.2596762229      -12.6550042289
 C        -5.8328562695        5.6624811172      -14.0375692564
 O        -5.7931545433        4.4691410186      -14.1955954408
 C        -5.8654576193        6.7625295936      -15.2619755162
 C        -5.4523478963        5.9546628316      -16.4841221530
 O        -6.3263041832        5.3274473869      -17.0264126779
 C        -3.9921749468        6.1546198925      -16.9877580012
 C        -3.7340452520        4.9745552292      -17.9234864537
 C        -3.2983480839        3.7569410342      -17.1692339145
 O        -2.8875762055        3.7950163099      -15.9939693349
 C        -3.5454679758        2.2897675312      -17.7942044170
 C        -4.1603750150        1.4641685071      -16.6502097227
 O        -5.3957926660        1.2978428238      -16.6554764098
 C        -3.3204302826        0.7639261634      -15.6202718544
 C        -4.1817029568        0.3813684251      -14.3886696004
 C        -5.1035740711       -0.7901773334      -14.8814839603
 O        -4.7451374197       -1.6891850371      -15.6972587711
 C        -6.6143829257       -0.8615610209      -14.2374960654
 C        -7.3572391465        0.2608514537      -14.9701584155
 O        -7.3329622010        1.3809725559      -14.4503122401
 C        -8.2442395590       -0.0205842014      -16.2787491412
 C        -8.7074528319        1.2513476321      -17.0299585451
 C        -9.6349054912        2.2762717375      -16.3571951546
 O        -9.1537655120        3.1987260716      -15.7502486450
 C       -11.1595670465        2.1656978578      -16.5495439099
 C       -11.4367061186        2.1326299982      -18.1116057178
 O       -10.7095802743        2.8667606058      -18.8132758475
 C       -12.4593672801        1.1859619285      -18.7270334829
 C       -12.9693485108        1.7990597340      -20.0788304686
 C       -13.9955338880        0.7311626580      -20.5855896992
 O       -14.6460764792        0.1691443166      -19.6648258627
 C       -14.2021115265        0.4210333261      -22.0402149256
 C       -14.4161318110        1.9345932314      -22.8287759231
 O       -13.7911641732        2.8789454301      -22.4033112895
 C       -15.3202097052        1.8081360396      -24.1157662289
 C       -12.8885924774       -0.1426376231      -22.6652612508
 C       -15.3135478863       -0.5903772687      -22.1953098913
 C       -11.4834234096        0.7714551339      -15.8296261746
 C       -11.8407516399        3.3744929388      -15.9136600910
 C        -7.2300989397       -2.2348247983      -14.6458257983
 C        -6.5902259545       -0.7245854535      -12.7264055556
 C        -4.4929843629        2.1318157627      -19.0569891984
 C        -2.2089639081        1.7309695153      -18.2628845552
 C        -7.3850365610        7.2106545780      -15.2797014004
 C        -4.9456165546        7.9935557205      -14.9792337068
 C        -4.8503519975        6.1796001885       -7.6822357318
 C        -3.6923377216        7.5079126361       -9.5366738900
 C         0.7607722832        2.7856684246       -5.1994269693
 C         2.5011612790        2.5209135521       -7.0630637476
 C         0.6230647764       -2.5503817395      -10.5406836821
 C        -1.6535411696       -1.5642692672      -10.5836421981
 C        -2.6157759749       -7.6404133800       -5.3533380354
 C        -1.2816653637       -5.9275163684       -4.0195512993
 C         0.9065346955      -13.6146113853       -2.9660861140
 C        -0.6903393710      -12.7706180365       -1.1318028725
 C         1.5006001430       -9.2717749162        2.9254502295
 C         0.1535175916       -7.5586795298        1.4791939493
 C         6.5131552522       -6.5774686466       -2.0312997619
 C         4.8939376620       -4.5036747329       -2.2391498507
 H         5.3231650747       -4.7806156316       -4.7023782020
 H         4.6397815130       -5.8340759902       -5.7939625959
 H         6.2102141302       -6.2229907007       -4.9573466684
 H         4.6235758052       -4.9415564835        0.2598559145
 H         5.1292458852       -6.3804274842        1.0400021711
 H         2.0573495173       -5.8642968453        0.5750624897
 H         2.9348662052       -5.2752488920        1.8555693007
 H         3.2793541011      -10.3289910178        1.1756664261
 H         3.3567673599      -10.1647610494       -0.6884989762
 H         1.1971799716      -11.8156372940        0.4567201749
 H         2.7106778071      -12.4702664751       -0.0980235479
 H        -0.0856966247      -11.5771176905       -5.5243939652
 H         1.2796242850      -11.0546474862       -4.4950952289
 H        -1.3634460938       -9.8138041823       -5.4555080460
 H         0.1734883424       -9.2847128324       -6.0946446726
 H        -2.0088423159       -4.8692552723       -6.5036137856
 H        -1.9417747215       -5.9008390374       -7.9364554735
 H         0.3862547721       -4.9190393576       -8.5756688652
 H         0.0389975595       -3.7523702205       -7.2621288126
 H        -1.6190852004       -1.3013471880       -7.0491766881
 H        -1.8326223913       -0.2394809224       -8.1136644121
 H         0.4580644211        0.0764583093       -6.0587857864
 H        -1.0844258307        0.8310904816       -5.9793244331
 H        -1.7932387001        4.0083078326       -6.7210285974
 H        -1.4736340671        3.1719427308       -8.1312289231
 H        -1.2326971359        5.3806563510       -9.4866853035
 H        -1.8730125817        6.1706409523       -8.0955457519
 H        -5.2015378476        4.3627735187      -11.7369759797
 H        -3.8584054876        5.5858555357      -11.7591598406
 H        -5.4446875224        7.2860003861      -12.7332994286
 H        -6.8406475845        6.4946543540      -12.2888044949
 H        -3.2811960225        6.1328544791      -16.1392323932
 H        -3.8721287467        7.1204983603      -17.3911359701
 H        -2.9278883969        5.1784182931      -18.7087576774
 H        -4.6182090627        4.7253307852      -18.5381850240
 H        -2.3281406759        1.1887150137      -15.4369480626
 H        -3.1102371662       -0.2288284231      -16.0527125157
 H        -4.7025639015        1.2831302851      -14.0717101212
 H        -3.5789142392        0.0193647536      -13.5100981330
 H        -8.9833420554       -0.7939273488      -15.9240380363
 H        -7.6467867950       -0.6825286998      -16.9792300103
 H        -9.2474842080        1.0352097518      -17.9830791064
 H        -7.7343151415        1.7359678085      -17.1929652420
 H       -13.3309912708        0.9667898936      -18.1542919229
 H       -11.8172579459        0.3197068148      -19.0016717777
 H       -12.1553010516        1.8901863674      -20.7644573226
 H       -13.4546487405        2.8493738619      -19.9150646052
 H       -14.9401061061        0.9821712913      -24.7063514840
 H       -15.3967907364        2.7930498290      -24.6656830824
 H       -16.3067900208        1.6629671037      -23.7515806346
 H       -12.6571538923       -1.0366199283      -22.1757605095
 H       -12.1600409142        0.5843751428      -22.6170389762
 H       -13.0324635625       -0.4383373684      -23.6919625245
 H       -16.2461219955       -0.2301086034      -21.7741184392
 H       -15.1426966109       -1.4958735163      -21.5858097787
 H       -15.3910369367       -0.8194945026      -23.1946926514
 H       -12.5859042956        0.7357437787      -15.9118246859
 H       -11.0326488135        0.7380405784      -14.8973044006
 H       -10.9869353345        0.0546123928      -16.4795810455
 H       -11.4490356847        4.3549826683      -16.2538463858
 H       -11.7791051925        3.4547791485      -14.8099121434
 H       -12.8543027985        3.4896213666      -16.2735017692
 H        -7.0730682114       -2.4638838204      -15.6901919868
 H        -8.3081326156       -2.1329190573      -14.5544681345
 H        -6.9015776993       -3.0395344329      -13.9708950498
 H        -7.3663054208       -1.2200860923      -12.2676214456
 H        -6.7919976517        0.3135346940      -12.5682702712
 H        -5.6681635563       -0.9369144715      -12.1446109278
 H        -4.2244787353        2.8151349502      -19.8209279277
 H        -5.4503239808        2.1929272407      -18.7526034684
 H        -4.3030809496        1.1234308928      -19.4576315602
 H        -1.5425037976        2.4978006112      -18.5249831569
 H        -2.2181407933        1.1662225887      -19.1846211983
 H        -1.7522910902        1.1356735324      -17.5215990167
 H        -7.8136951713        7.0993916036      -14.3146987039
 H        -8.1309894796        6.6831603411      -15.9233393231
 H        -7.3453311841        8.3142640706      -15.4829712968
 H        -3.9996143182        7.6569340406      -14.6406597649
 H        -5.4060784985        8.6229557437      -14.2261788277
 H        -4.8848481668        8.6976282451      -15.8391613147
 H        -4.2523783119        6.6054738988       -6.8763197619
 H        -5.0397163426        5.1169312608       -7.4519620150
 H        -5.7101882816        6.7849375077       -7.7793244834
 H        -2.6887349299        7.4691484116      -10.0115164679
 H        -3.5339723768        8.0207389187       -8.6191559455
 H        -4.3759255879        7.9842731572      -10.2105128892
 H        -0.1811208996        3.0072047158       -4.8618861841
 H         1.4177939687        3.4720374850       -4.6729090847
 H         0.9079463077        1.8051436822       -4.7246141750
 H         2.8966725328        3.4629559933       -7.1959069613
 H         2.7153810193        1.9541861622       -7.8991355029
 H         2.9777188771        2.0218464846       -6.2620252766
 H         0.3255565559       -2.6318589198      -11.5550326662
 H         1.0341520472       -3.4604076171      -10.0386548275
 H         1.3871504959       -1.7137640657      -10.4511721470
 H        -1.8410541137       -2.1449973231      -11.4589775728
 H        -1.3131906819       -0.5394419437      -10.7663951142
 H        -2.6897198680       -1.4090650355      -10.1757102740
 H        -2.9237248460       -8.1536312492       -4.4773613350
 H        -2.7887089504       -8.4386459184       -6.1510255612
 H        -3.3150469337       -6.7885743656       -5.5714076484
 H        -1.0243355654       -6.3484446627       -3.0271254184
 H        -2.2438132949       -5.4954206924       -4.1287901957
 H        -0.5493349583       -5.1528425636       -4.2556458793
 H         1.9037863298      -13.4021925768       -3.3921514166
 H         0.2451763355      -13.8996029423       -3.7753309089
 H         1.0826093570      -14.3206256013       -2.1479824953
 H        -1.5462947140      -13.1850484881       -1.6207788230
 H        -0.9791070656      -11.7962949521       -0.7771784158
 H        -0.4218187693      -13.5477115599       -0.3318771580
 H         1.3141061760       -8.6531271944        3.8304390235
 H         2.4317746387       -9.8527932666        3.0417661263
 H         0.6985878851      -10.0376886794        2.8388482422
 H         0.3228042791       -6.4979568094        1.5233994092
 H        -0.4986947763       -7.9742532873        2.2452945651
 H        -0.1812485659       -7.7480603173        0.4924816517
 H         7.2311223347       -6.1271724866       -2.7677626998
 H         6.5910480853       -7.6141668644       -2.2933357219
 H         6.9325303964       -6.4547732025       -1.0567430565
 H         5.7256925034       -4.0911874421       -2.7366951345
 H         4.8762165312       -3.9106095338       -1.3141999011
 H         3.9996329837       -4.1191362294       -2.7593876615
 Na        2.3825673230       -8.8370596873       -2.4921734269
 Na       -6.9402732051        3.3434873959      -15.8826694949
