232

 C         5.0235553636       -6.4579915730       -5.0776759678
 C         4.4331605219       -6.5718962629       -3.7159281711
 O         3.2738434670       -6.9716856083       -3.5482007897
 C         5.1841979638       -5.9959360298       -2.3730268931
 C         4.5041577574       -6.6497614581       -1.1091223947
 O         4.0567020236       -7.8176845942       -1.1498929094
 C         4.4876512031       -5.7903680876        0.1868672859
 C         3.1353463389       -6.2490311089        1.0031181259
 C         3.0809405785       -7.6387192920        1.7559987088
 O         4.1090633995       -8.2033975355        2.1586505053
 C         1.5669317481       -8.2449049977        1.9160779817
 C         1.6649900016       -9.1337582425        0.5883586300
 O         1.1223454361       -8.6397022223       -0.3999891584
 C         2.3763377600      -10.4797988739        0.5286486038
 C         1.5497839343      -11.5409426992       -0.1574674911
 C         1.6228754912      -11.5905716639       -1.6498748068
 O         2.6063748288      -11.1911381079       -2.2508195190
 C         0.4605805293      -12.2223828553       -2.4391151442
 C        -0.1404453475      -10.9684820103       -3.3270371680
 O        -1.1916948272      -10.4399648811       -3.0039535837
 C         0.4747975540      -10.7612707553       -4.7506270630
 C        -0.2532568126       -9.5994368863       -5.4607615371
 C        -0.2939569424       -8.3138244905       -4.6747654784
 O         0.4023638901       -8.2309038041       -3.6742017993
 C        -1.0915255511       -7.0930563982       -5.1116635098
 C        -0.4385354036       -6.4834194052       -6.3785315339
 O         0.6206607373       -6.9280813910       -6.7837426696
 C        -1.2682046061       -5.4418517532       -7.1279823377
 C        -0.3209999730       -4.5583415630       -7.9071615105
 C        -1.1458232865       -3.7353262028       -9.0091143812
 O        -2.1828044691       -4.1316538182       -9.4615702550
 C        -0.4619324717       -2.3661848306       -9.4810959276
 C        -0.1666061856       -1.3555052552       -8.2862126968
 O         0.9837842220       -1.2653765677       -7.8866212420
 C        -1.2696094639       -0.4122685373       -7.7590258525
 C        -0.7852792961        0.8046955727       -6.9753132964
 C         0.1955130473        1.6994435136       -7.7908806120
 O         0.5420906661        1.3542709701       -8.8992436585
 C         0.9555815099        2.8899591156       -7.1337994754
 C         0.2575633656        4.2194919581       -7.4393742746
 O         0.7296682107        5.2839560685       -7.2871005895
 C        -1.2431292428        4.0239340190       -7.8433768408
 C        -1.8806214913        5.2823774455       -8.3900129901
 C        -3.2210482742        4.8543972779       -8.9867272010
 O        -3.4100485117        3.7794518910       -9.6195780275
 C        -4.3148645209        5.9088254984       -9.0141437704
 C        -5.5007039310        5.5374203362      -10.0464739773
 O        -6.5731834904        5.1742629092       -9.6311008420
 C        -5.1010500278        5.3947439180      -11.6005055833
 C        -5.8340124447        6.4279483345      -12.4940503606
 C        -5.8283073883        5.7548774073      -13.8823290813
 O        -6.2100507409        4.5824246144      -13.8989308713
 C        -5.6738004091        6.6131866094      -15.2621760863
 C        -5.2870184262        5.7334137490      -16.4756684112
 O        -5.9297909934        4.6920359606      -16.6038453377
 C        -4.2397108011        6.1983036390      -17.3868121344
 C        -3.7597172207        4.9522616407      -18.1244051291
 C        -3.7293492283        3.7486792503      -17.2018311206
 O        -3.4562603906        3.9281619666      -16.0428515979
 C        -3.6158119269        2.1005449505      -17.7035423434
 C        -4.2878709401        1.3767878998      -16.5717093206
 O        -5.5080103357        1.4757146392      -16.4777727718
 C        -3.5324181325        0.9794197890      -15.4010988752
 C        -4.3978859877        0.3600056090      -14.2748829908
 C        -5.1457932572       -0.8673537479      -14.8065309997
 O        -4.6368113837       -1.7912409474      -15.4045344137
 C        -6.7175795249       -1.0530589701      -14.3193408334
 C        -7.4424404075        0.3311364018      -14.8935355241
 O        -7.2459082265        1.3396404591      -14.2497612886
 C        -8.2648752202        0.1497755129      -16.2024427098
 C        -8.6981369421        1.4222240834      -16.8810373612
 C        -9.7907768342        2.2572902056      -16.1433202610
 O        -9.5391332049        3.0489966082      -15.2508339362
 C       -11.3665411008        2.0780790146      -16.3662176229
 C       -11.6433810936        2.2081327687      -17.9041793880
 O       -10.7903123861        2.8570283427      -18.5206218431
 C       -12.7723065957        1.4622164632      -18.5207199012
 C       -13.0094881309        1.8635091447      -20.0439869132
 C       -14.0681309928        0.8348168601      -20.5806326799
 O       -14.7118653284        0.0757925878      -19.8280468100
 C       -14.0558305182        0.5957072383      -22.1034118355
 C       -14.2376901122        1.9809821193      -22.9237393064
 O       -13.8773407568        3.0325318813      -22.4354364002
 C       -14.7995841433        1.9766100633      -24.3814539261
 C       -12.6862537189       -0.0961548398      -22.4886645958
 C       -15.1525633206       -0.4331147265      -22.6360803161
 C       -11.6978860166        0.6689523650      -15.8098507190
 C       -12.1609711023        3.1864887645      -15.7270764156
 C        -7.5089406074       -2.3099310009      -14.8351601069
 C        -6.7617509501       -0.8803090605      -12.6746836917
 C        -4.4372296437        1.8701091739      -18.9654984003
 C        -2.1212133295        1.8216169750      -18.0068272381
 C        -7.0357098996        7.1979393571      -15.4546217877
 C        -4.6045316376        7.7898068123      -15.0416094259
 C        -5.0460847077        5.8853736891       -7.6135988365
 C        -3.8877531580        7.3805065010       -9.3808178845
 C         1.0714134839        2.7156487405       -5.5493329314
 C         2.4000378089        2.8015259859       -7.6638502664
 C         0.9462831097       -2.8340895694      -10.0647677659
 C        -1.3170666902       -1.7085751156      -10.6427211234
 C        -2.6010732596       -7.3796454630       -5.3286214522
 C        -0.9217543330       -5.9932069790       -3.9891113954
 C         0.8630287113      -13.3784786602       -3.3625875723
 C        -0.6797240022      -12.6247319988       -1.5130076987
 C         1.3836122000       -9.0054057803        3.1549967472
 C         0.3548629934       -7.2455559675        1.6606442922
 C         6.7058755654       -6.4054636575       -2.4999089021
 C         4.9860465073       -4.4098850349       -2.4817424850
 H         5.8657474547       -7.1558298833       -5.2531949296
 H         5.5015963055       -5.4693275656       -5.2096124022
 H         4.3314834431       -6.7374207978       -5.8383959434
 H         4.3967171082       -4.7920071578       -0.1753996554
 H         5.4149982359       -5.9132213475        0.6898945017
 H         2.2581441287       -6.1478924911        0.4751222933
 H         3.0459735286       -5.5467390571        1.8090031158
 H         2.7725913304      -10.8720130488        1.4732155651
 H         3.2233091020      -10.1371700899        0.0059697059
 H         0.5538059616      -11.4138005779        0.3176368953
 H         1.9267928994      -12.5497968395        0.1886674476
 H         0.2350824500      -11.6962159968       -5.1497643627
 H         1.5555588834      -10.6137037184       -4.9528637828
 H        -1.3046486021       -9.7730719388       -5.5313207037
 H         0.1143337390       -9.4395259074       -6.4595562314
 H        -1.8600684462       -4.8106110070       -6.3664945507
 H        -1.8920382615       -5.9533721261       -7.8743651477
 H         0.3330853020       -5.2925881392       -8.5187795137
 H         0.3549393559       -4.0005839994       -7.2904896398
 H        -2.0537482711       -0.8729013472       -7.1643306130
 H        -1.8922984376       -0.2295101960       -8.5543437800
 H        -0.4189254519        0.4649621952       -5.9431130452
 H        -1.6757909522        1.5056589662       -6.6831667237
 H        -1.8567581028        3.6209052099       -7.0087596480
 H        -1.2556598174        3.3176715106       -8.5620662305
 H        -1.3204120880        5.8253492731       -9.1435597529
 H        -1.9538251575        6.0561205803       -7.6219271364
 H        -5.5276832565        4.4933411836      -11.8381670342
 H        -4.0307389302        5.3993194568      -11.7700682431
 H        -5.3479654142        7.4190859569      -12.4882774679
 H        -6.8471778982        6.6448355382      -12.1548608893
 H        -3.4200904056        6.7558617701      -16.9098747431
 H        -4.7344156906        6.8825357404      -18.0448048113
 H        -2.6742060728        5.0868694465      -18.4865199999
 H        -4.3576477074        4.8189997693      -18.9993188461
 H        -2.9768029099        1.9077687423      -15.1093484700
 H        -2.7107386290        0.2078481477      -15.6007932298
 H        -5.1006259857        1.1459036675      -14.0006025441
 H        -3.6965920809        0.0162928260      -13.4894013925
 H        -9.1873856239       -0.4443823177      -15.9789619184
 H        -7.6523661621       -0.4791223157      -16.9364469891
 H        -9.0273511134        1.1619763983      -17.8731485587
 H        -7.9082567461        2.1816150765      -16.9529983641
 H       -13.6074663978        1.6312246898      -17.9174018526
 H       -12.5413437279        0.3944199808      -18.5435578947
 H       -12.1002643074        1.7137282000      -20.6360782069
 H       -13.3822752979        2.9296777088      -20.2107594735
 H       -14.3266395721        1.1999550591      -24.9681135794
 H       -14.7574088307        2.9826734975      -24.8329001300
 H       -15.8888532833        1.8647461411      -24.2174571783
 H       -12.6050342357       -1.0349438001      -21.8745150501
 H       -11.8829036609        0.6555704372      -22.3863150470
 H       -12.6584470709       -0.3184686154      -23.5494783574
 H       -16.1459132752        0.0058250590      -22.5730813901
 H       -15.1833123201       -1.3746293078      -22.0838821567
 H       -14.8916758333       -0.6883380890      -23.6120065579
 H       -12.8163374976        0.5835971957      -15.7036570519
 H       -11.2092474358        0.6317770077      -14.8601948806
 H       -11.2726721189       -0.0203802054      -16.5836970352
 H       -11.8496456612        4.1444347018      -15.9754155175
 H       -11.9070298587        3.1985323797      -14.6935542710
 H       -13.2655082271        3.1476406627      -15.7494925421
 H        -7.7585601313       -2.1747694671      -15.8440699108
 H        -8.3721352880       -2.5822328975      -14.2276669324
 H        -6.7743385535       -3.0964625957      -14.7406499846
 H        -7.6528666724       -0.5588473051      -12.2728947780
 H        -5.9972543123       -0.2120776831      -12.2686579530
 H        -6.6455789441       -1.8624020067      -12.1313129753
 H        -4.0678990032        2.5266123597      -19.7515534629
 H        -5.4267009557        2.0641467753      -18.6738164055
 H        -4.2742990281        0.8002329344      -19.3743731923
 H        -2.0211733083        1.5254190987      -19.0211872425
 H        -1.5515313340        1.1358595569      -17.2938787161
 H        -1.4803229121        2.6943278613      -17.9639714911
 H        -7.1511561549        8.0751548921      -14.9543523820
 H        -7.8860496721        6.5309703415      -15.2462742656
 H        -7.2062866642        7.3142263824      -16.5241365541
 H        -3.6070119349        7.4099973923      -14.9156408725
 H        -4.8665271168        8.4402197862      -14.2229299760
 H        -4.5778990461        8.4031858584      -15.9758619744
 H        -4.5104230530        6.0315649310       -6.6905531040
 H        -5.5393491575        4.9008506744       -7.5494854089
 H        -5.7718201901        6.6909438499       -7.7479737641
 H        -3.7609748762        7.5010252325      -10.4945609639
 H        -2.9823823447        7.5739657901       -8.7589415566
 H        -4.5872420131        8.1271326134       -9.0166601191
 H         0.1661249987        2.5688243324       -5.0635511277
 H         1.5491240773        3.5378737563       -5.0212430467
 H         1.6888080445        1.9264646068       -5.2764723705
 H         3.0679879901        3.2467961396       -6.9807727895
 H         2.5653116307        3.3450088026       -8.6061656536
 H         2.6185955674        1.7924450876       -7.8070052339
 H         0.9356418531       -3.8796465126      -10.3420582134
 H         1.7735407505       -2.6520640016       -9.3087222809
 H         1.1511948977       -2.0265661267      -10.7914116591
 H        -1.5308689726       -2.2977013372      -11.4783003442
 H        -0.7361634071       -0.9120187888      -11.0498415146
 H        -2.3285406199       -1.3571838947      -10.2750100210
 H        -2.9099269234       -8.1051760978       -4.5591977677
 H        -2.8514168648       -7.8409610267       -6.2877480334
 H        -3.1380261478       -6.3866925303       -5.1691052094
 H        -1.5423885759       -5.1145666052       -4.1432591582
 H         0.1253795741       -5.7932954942       -4.0248165385
 H        -1.0300761810       -6.5746950763       -3.0560773692
 H         1.5513434555      -13.1499079178       -4.1499444767
 H        -0.0097005697      -13.8636994861       -3.6792122592
 H         1.4270444513      -14.0390575962       -2.6019306418
 H        -1.5467580167      -12.7547184188       -2.1359908065
 H        -0.9628688614      -11.8526478111       -0.8463159947
 H        -0.5237448590      -13.6681299287       -1.0555797414
 H         1.3001588928       -8.2981842536        3.9642060307
 H         2.2198191154       -9.4765999685        3.5269031042
 H         0.5749496121       -9.7136902828        3.1463222492
 H         0.1786372155       -6.7252995985        2.6185095234
 H        -0.5842054048       -7.8225061339        1.5000401075
 H         0.5609396199       -6.5104933265        0.8580339013
 H         7.2389412441       -6.0085896847       -3.3880362378
 H         6.7880131794       -7.4887811741       -2.5460699667
 H         7.2564206813       -6.1011925410       -1.6170072324
 H         5.0398889172       -3.9655235861       -3.4624675233
 H         5.6041869739       -3.7391452417       -1.8622931129
 H         3.9603638967       -4.1794893764       -2.1954759043
 Na        2.2611764726       -8.8723728297       -2.5336476911
 Na       -7.0704536155        3.2568505212      -15.2706765146
