232

 C       -19.3075943196      -11.4878055770        0.8474998463
 C       -18.2316442924      -11.8820612386       -0.2066157214
 O       -18.0399364675      -11.1470406844       -1.1263846509
 C       -17.4279958307      -13.2545020576       -0.0141598724
 C       -16.0541182853      -13.1177861142       -0.5502449818
 O       -15.8196031153      -13.3013927530       -1.7387223175
 C       -14.9550578497      -12.5709027037        0.4193051337
 C       -13.7025462100      -12.1714763786       -0.2762180136
 C       -13.7872056697      -10.7126528584       -0.8051995306
 O       -14.6251619245       -9.9646164479       -0.2894365829
 C       -12.8315713321      -10.1374580695       -1.9205320847
 C       -13.4928981864      -10.5779952345       -3.3057339884
 O       -13.9695559285      -11.6895523222       -3.4304364883
 C       -13.2765315565       -9.7484556737       -4.5526855413
 C       -14.1098628370      -10.1452954259       -5.8636656415
 C       -15.5724992018       -9.8222154914       -5.7821030398
 O       -16.4169940991      -10.1978891669       -4.9028091601
 C       -16.1466790255       -8.9825009222       -6.9302334560
 C       -15.1914616153       -7.6204418030       -7.0574629557
 O       -14.4967327107       -7.3741274809       -6.1110915466
 C       -15.3895120122       -6.7379423736       -8.3140530315
 C       -14.1901707585       -5.7945943803       -8.6936153102
 C       -14.3974531935       -5.2437161279      -10.1181224881
 O       -15.4514245737       -5.2052266701      -10.7065223940
 C       -13.0821907532       -4.8671283313      -11.0203106384
 C       -12.1568070304       -3.9867838463      -10.1816197344
 O       -11.7610387130       -4.4991830089       -9.1534715503
 C       -11.6578966586       -2.6297330928      -10.6698395706
 C       -11.0410676439       -1.7972002214       -9.4885460326
 C       -10.3680956139       -0.5809246983       -9.8676525924
 O       -10.1836170264       -0.3217130821      -11.0375629485
 C        -9.5409573296        0.1794251593       -8.7651522677
 C        -8.0438474531        0.1286750759       -9.1131024923
 O        -7.2670949558       -0.5547956922       -8.4131860226
 C        -7.4623576399        1.0640435967      -10.2212340125
 C        -6.1316336440        0.4879723629      -10.8613024876
 C        -4.9174507731        1.4779670380      -11.0842092313
 O        -4.7831373080        2.4251156849      -10.3505817311
 C        -3.7105329711        1.1350598275      -11.9868449632
 C        -2.7232764610        0.5211582319      -10.9486707459
 O        -2.6255461339       -0.6848566388      -10.9479831717
 C        -1.9405858162        1.4337312012       -9.9590668498
 C        -0.6500323714        0.6663971087       -9.6046680818
 C         0.2212393328        1.2361331523       -8.2941562960
 O        -0.0753820144        2.2108743731       -7.6637354423
 C         1.5703547344        0.5271564804       -8.0533344465
 C         2.7475666823        1.5109534316       -8.3104724732
 O         3.5708482663        1.3707385578       -9.2414113987
 C         2.9803676408        2.6750021614       -7.4177576935
 C         4.0219345559        3.6761156557       -7.9012164012
 C         3.6055166363        4.4935273576       -9.1832191897
 O         2.4924299146        4.6441630858       -9.4608308626
 C         4.7550559686        5.3719834367      -10.0591355399
 C         4.5875526252        4.8722491237      -11.5082756022
 O         5.4554188809        4.2366648648      -12.0536446112
 C         3.3012731570        5.1825383887      -12.2228758446
 C         3.5739030705        6.4268237747      -13.0781488393
 C         4.1240621356        6.1060221546      -14.4994237158
 O         4.5461680464        5.0087844472      -14.8478265629
 C         4.0426186933        7.1221575339      -15.6764720085
 C         5.3561313954        7.3835982182      -16.4997524073
 O         5.4847346915        7.1925429314      -17.6347306780
 C         6.5427362207        7.6894224100      -15.5572862587
 C         7.8807787928        7.1156973436      -16.0152308020
 C         7.8835032012        5.5272858815      -16.0607562278
 O         7.8240460077        4.8565339761      -15.0739033545
 C         7.9231809653        4.7160243673      -17.4825781988
 C         9.2589724070        3.8804401275      -17.3935696866
 O         9.8794084472        3.7482722704      -16.3940223282
 C         9.7386333749        3.0811151745      -18.6945997938
 C        10.7151921784        1.9423489946      -18.2259171157
 C        10.0887902243        0.6888573531      -17.6724585654
 O         8.8498653956        0.5467843848      -17.5930067642
 C        10.9981544350       -0.4654138212      -17.0902681347
 C        10.6449048928       -0.5108200065      -15.5542631667
 O        11.4243236468       -0.0498039820      -14.7371502403
 C         9.2903366975       -1.0785968406      -15.1267548501
 C         8.8712544499       -0.3582294948      -13.8034288673
 C         7.7330484685        0.7042362242      -13.8489195368
 O         8.0149471231        1.8794957752      -13.6266859613
 C         6.3605162455        0.0662928650      -13.9389104501
 C         5.5030851442        0.5337909702      -15.2388444991
 O         5.1557309682        1.6922101887      -15.3264766492
 C         5.5215537968       -0.3801989478      -16.5051642840
 C         6.2685207591       -1.5362314890      -13.8664398643
 C         5.5496221708        0.6261836499      -12.6426958060
 C        10.5227789174       -1.8634097629      -17.8732504810
 C        12.5573865328       -0.3147044140      -17.3106625081
 C         6.6494610084        3.7239413390      -17.6005477486
 C         8.0275880427        5.6390426474      -18.7357600526
 C         3.0033913638        6.3536206039      -16.5462335352
 C         3.5209274097        8.5775375062      -15.3525958151
 C         4.4571625449        6.8570179148       -9.8533143806
 C         6.2267539995        4.9843255191       -9.5979534568
 C         1.5824420979        0.1495187665       -6.4792106705
 C         1.7186411282       -0.8242098788       -8.8007642064
 C        -3.9647492379        0.0278166606      -13.0162239234
 C        -3.2826845386        2.5639017468      -12.6939164628
 C       -10.1533779215        1.6916467670       -8.9312882723
 C        -9.7818220828       -0.2300179855       -7.3351576414
 C       -12.2816662727       -6.1911247356      -11.3253970618
 C       -13.5649450314       -4.2771058503      -12.3001418007
 C       -15.9510332207       -9.9308573005       -8.2314454371
 C       -17.6449571205       -8.6513948649       -6.6600392770
 C       -12.7317375589       -8.6323711236       -1.9081155297
 C       -11.4615670206      -10.8953099628       -1.8245283777
 C       -17.5121303848      -13.6813630937        1.5158131598
 C       -18.2644533202      -14.3235234458       -0.8296335668
 H       -18.8406102014      -10.8792758331        1.6129347383
 H       -19.8646879561      -12.3422419801        1.2496324741
 H       -19.9958826255      -10.8850518483        0.2934502170
 H       -14.7303029787      -13.4403465790        1.0248877515
 H       -15.3373774957      -11.7050109244        0.9846316862
 H       -13.5375441257      -12.9189362888       -1.1117611793
 H       -12.8018083764      -12.2377883378        0.3424702521
 H       -12.1990569047       -9.8684190008       -4.7116223263
 H       -13.4968401380       -8.6659192171       -4.3115575536
 H       -14.0052551484      -11.1745890494       -6.0386798316
 H       -13.5632284520       -9.6340045863       -6.6878826373
 H       -16.2562141748       -6.0632548355       -8.1176005367
 H       -15.7346713729       -7.3816990313       -9.0873704822
 H       -13.1795728202       -6.1741084949       -8.5717268484
 H       -14.3346272962       -4.9435011682       -7.9460758168
 H       -12.5621479548       -2.0174056331      -10.9334013352
 H       -10.9841552336       -2.6607269544      -11.5516840404
 H       -10.3504142265       -2.5338769887       -9.0198114978
 H       -11.7565175649       -1.5960502451       -8.6815823036
 H        -7.3606212699        1.9781471920       -9.5566201661
 H        -8.2542877988        1.3214875673      -10.9586528610
 H        -6.4525207461        0.0416026518      -11.7409676064
 H        -5.8273878605       -0.2994915402      -10.1884781696
 H        -2.5633653724        1.5672571192       -8.9738787524
 H        -1.8533008066        2.3342769918      -10.4311463844
 H        -0.0283942903        0.7932022189      -10.5178437007
 H        -0.7410658515       -0.3764941554       -9.4283436276
 H         3.3237913757        2.1873979459       -6.4450716724
 H         1.9594891877        3.0211320431       -7.0161925905
 H         4.9310016411        3.0814763892       -8.1960728642
 H         4.3967192605        4.2711846770       -7.0959005202
 H         2.5189869375        5.2838663879      -11.4872141853
 H         2.9303144816        4.3866100606      -12.9439329644
 H         4.3587132122        7.0340339216      -12.6282747874
 H         2.6937684458        7.1030198466      -13.2379617082
 H         6.2756938520        7.3482137655      -14.5530425082
 H         6.7569408953        8.7644830652      -15.4037790816
 H         8.7601153097        7.4378901531      -15.3332596770
 H         7.9984074057        7.4554622801      -17.0283450005
 H        10.2450205956        3.7526535085      -19.3363977025
 H         8.8367498998        2.7111437629      -19.2407992270
 H        11.4370135769        2.3165247879      -17.4503401187
 H        11.2282540403        1.5841738308      -19.0540327487
 H         9.4560235496       -2.1578709122      -14.8056326834
 H         8.4996110543       -1.0685397840      -15.8985425484
 H         9.7687566585        0.0194812137      -13.4111199449
 H         8.6194334241       -1.1385763769      -12.9931047764
 H         6.5045587734       -0.5295881258      -16.8080236189
 H         4.8672806231        0.0807898922      -17.3432756147
 H         5.2098354557       -1.4445599364      -16.4229813676
 H         5.2474755065       -1.8724545951      -13.7802217219
 H         6.7408582158       -1.9430615277      -13.0150374802
 H         6.6671009057       -1.9426616903      -14.7638925371
 H         6.0366213802        0.9727518670      -11.6637160134
 H         4.7038969033        0.0167862760      -12.2329384633
 H         5.0770042718        1.5790675658      -12.9543359275
 H        10.5726097941       -1.8057198312      -18.9356030828
 H         9.4556038314       -1.8554912381      -17.7034091414
 H        11.0098067562       -2.7489570010      -17.4135233462
 H        12.8356299637       -0.4223923303      -18.3660144022
 H        13.1052059568       -1.1597549996      -16.8666293890
 H        12.8769377187        0.6482735208      -16.8921587519
 H         6.7476295635        2.9575751876      -16.9083833446
 H         6.4137388692        3.3982913869      -18.6020279915
 H         5.8151594656        4.2973802034      -17.3349518116
 H         9.0582724038        5.8879866950      -19.0596221001
 H         7.6943762508        6.5664215130      -18.4473631487
 H         7.5799344784        5.3617007071      -19.6662957642
 H         2.0477268954        6.4098004044      -16.0095978245
 H         3.2275207882        5.2335699634      -16.6960312588
 H         2.8647789414        6.8113855902      -17.5344666977
 H         3.3108065203        9.0937586926      -16.2901022553
 H         4.2792516316        9.2996774686      -14.9192493113
 H         2.6570275839        8.5926140016      -14.6017861836
 H         4.5640850481        7.1965880490       -8.7959338775
 H         3.4006970055        7.0079632251      -10.0571037863
 H         4.9536673100        7.6231395986      -10.4466477000
 H         6.9084138382        5.4866545109      -10.2521980974
 H         6.2067404058        3.9758259352       -9.7779422102
 H         6.4866908128        5.3277005437       -8.6189879927
 H         1.3002206571        1.0969892043       -5.9209508132
 H         2.5062060515       -0.2643118346       -6.0364145045
 H         0.8083853519       -0.6487053114       -6.3930600743
 H         0.8816906739       -1.4863164063       -8.4929903648
 H         2.7074540799       -1.1379163453       -8.6150339248
 H         1.5794102752       -0.8113615096       -9.8985848480
 H        -4.6329825440       -0.7155932315      -12.6407701946
 H        -3.0464720388       -0.5266387194      -13.2024980130
 H        -4.4746357552        0.3501466387      -13.8338647961
 H        -2.2479626790        2.4840303998      -13.0829610752
 H        -3.2792463281        3.3684182316      -11.9650673109
 H        -3.8600860587        2.8232372806      -13.6180210077
 H       -11.0984770648        1.6544829818       -8.5349891510
 H       -10.3432536641        2.0405462919       -9.9361944382
 H        -9.5428394647        2.2885802099       -8.2919766747
 H       -10.8303597702       -0.1121265003       -6.9570665960
 H        -9.1603836947        0.3913057134       -6.6951831293
 H        -9.4844963969       -1.2188970894       -7.0662740846
 H       -11.4601156284       -5.9177669972      -11.9821378937
 H       -13.0568569051       -6.7420462092      -11.9088224010
 H       -11.8961560572       -6.6520736208      -10.4091666919
 H       -14.1698177167       -5.0340950786      -12.8077571580
 H       -12.7722604789       -4.0893205345      -13.0473585328
 H       -14.0829428278       -3.3856582763      -12.1122595590
 H       -14.9986677140       -9.7993910957       -8.6546670318
 H       -16.6678500525       -9.7076232397       -8.9710826826
 H       -16.1232186326      -10.9318589204       -7.7997790423
 H       -17.8817754144       -8.1908803453       -5.6754661320
 H       -18.0031103609       -9.7175377125       -6.5516492085
 H       -18.1308152906       -8.1535896039       -7.4910307121
 H       -13.7393016604       -8.1355099248       -1.9781492804
 H       -12.1254326027       -8.3083467124       -2.7295645363
 H       -12.1502833420       -8.3288182210       -1.0683097598
 H       -11.3887301390      -11.9552926562       -1.8953195052
 H       -10.8988758083      -10.6450881464       -0.9813361265
 H       -10.7074052943      -10.5502641500       -2.6237253493
 H       -16.9716329593      -12.8916035900        2.0728990708
 H       -16.9518649485      -14.5651410766        1.7016746626
 H       -18.4859622178      -13.8037979425        1.8512431169
 H       -18.6528141883      -13.9755798215       -1.7457098122
 H       -19.0994665593      -14.6871434368       -0.2471458325
 H       -17.5678070857      -15.1330497425       -1.1134224532
 Na      -16.4239353882      -11.3988398719       -2.9953190426
 Na        6.1584089698        3.6280985327      -14.2365107636
