232

 C         5.1518327387       -6.5683649787       -5.1572692087
 C         4.3970221650       -6.7362243073       -3.8116823029
 O         3.2655159775       -7.1501922389       -3.8275271871
 C         5.1569405627       -6.0966938002       -2.5816764262
 C         4.7394056644       -6.8084419334       -1.2370177725
 O         4.3121383566       -7.9158338562       -1.3010180195
 C         4.7231609629       -6.1157157631        0.1277370758
 C         3.5364935482       -6.3400339969        0.9820052105
 C         3.5058690599       -7.6670056042        1.4992515108
 O         4.4468091916       -8.3929069998        1.8228378273
 C         2.0263561355       -8.1677471361        1.8552110728
 C         1.5625042049       -8.9817492813        0.6250632053
 O         1.0409378932       -8.4469092740       -0.3474010587
 C         1.7713965791      -10.4808588110        0.7349986284
 C         0.8323692234      -11.3190772065       -0.1392872317
 C         1.2364817043      -11.4243970311       -1.6122144306
 O         2.2981971948      -10.9107672335       -1.9854811064
 C         0.3464774948      -12.2796651869       -2.6779271225
 C        -0.1814832783      -11.0020421918       -3.4763625843
 O        -1.1573391625      -10.4210666703       -3.0111290484
 C         0.7823482228      -10.5971502057       -4.5916579129
 C         0.2511629698       -9.4806876444       -5.4516151048
 C        -0.0423949135       -8.2323778149       -4.6038052602
 O         0.6528126897       -8.0072744025       -3.6036428906
 C        -1.0378229059       -7.1235076565       -5.1013820915
 C        -0.4043302443       -6.5238309897       -6.4914170989
 O         0.5218857654       -7.0507891133       -7.0510266933
 C        -1.1781078041       -5.3491468885       -7.1235444039
 C        -0.2096579791       -4.5362112247       -7.9382297034
 C        -0.8688216906       -3.5897467236       -8.9933761721
 O        -2.0877056262       -3.5176388161       -9.1748971131
 C        -0.0098576637       -2.4130182527       -9.5604805103
 C        -0.1299276314       -1.5014130585       -8.2745201091
 O         0.5004298078       -1.8039000968       -7.2749579072
 C        -1.2126716622       -0.4044684305       -8.2026400547
 C        -0.5191774009        0.6622907392       -7.3596787695
 C         0.4483208437        1.5694350887       -8.1170747221
 O         0.7335321125        1.4356276308       -9.2907211461
 C         1.0972682926        2.7325317462       -7.4163543066
 C         0.1265126266        4.1496845714       -7.5839327459
 O         0.6326318157        5.2543245631       -7.4052002691
 C        -1.3445550075        3.8866884246       -7.9287465970
 C        -2.1925774886        5.1802265833       -7.9468325553
 C        -3.3786154554        5.1106577114       -8.8860384568
 O        -3.3775914748        4.2541442101       -9.7006702930
 C        -4.5906316316        6.1130098988       -8.7605219894
 C        -5.5256864626        5.8732017519      -10.0148765881
 O        -6.6963763375        6.0171106319       -9.8301270223
 C        -4.9814000969        5.4628234280      -11.4339366919
 C        -5.6002513326        6.5104917595      -12.3668566408
 C        -5.9319601352        5.9014455603      -13.8292322062
 O        -6.4739248325        4.8401863305      -13.8721341970
 C        -5.8043522170        6.8424748910      -15.1532583412
 C        -5.6137986770        5.8511644537      -16.4300942736
 O        -6.3847024353        4.9375004512      -16.4818255535
 C        -4.3855738746        6.0067584855      -17.3631713926
 C        -4.1401356065        4.6515702355      -18.1971128781
 C        -3.3237057930        3.6037597204      -17.3275215349
 O        -2.6670201172        3.9277525402      -16.3562527744
 C        -3.4868635913        2.0777715076      -17.5432677137
 C        -4.4453584193        1.6118867440      -16.3688275494
 O        -5.6366387608        1.7728723442      -16.4890062318
 C        -3.8108847056        0.8199414551      -15.2454677720
 C        -4.7235310746        0.3126163638      -14.1437764034
 C        -5.3667259522       -0.9229248314      -14.6902149037
 O        -4.8527417551       -1.7439215881      -15.4319806359
 C        -6.9484198260       -1.2127380956      -14.2112490338
 C        -7.7020650168       -0.0284567867      -14.6499420651
 O        -7.7419125575        1.0417430198      -14.0161930745
 C        -8.5545722439       -0.1959089146      -15.8745079034
 C        -9.1857847908        1.0217960917      -16.6014092982
 C       -10.0590938279        2.0581981017      -15.8243599800
 O        -9.5818495178        3.1863558036      -15.6127751537
 C       -11.5559829127        1.8084045238      -16.0453812013
 C       -11.7834195210        2.2001224464      -17.7640973999
 O       -10.9962014003        2.9270910885      -18.2680003918
 C       -13.0556259470        1.6858490983      -18.4374955997
 C       -12.8488324291        1.6088150831      -20.0013413041
 C       -14.0117496559        0.9073578499      -20.6956588015
 O       -14.9080904192        0.4652950579      -20.0606222235
 C       -13.9478977728        0.6744620647      -22.3158452972
 C       -14.1231090054        2.1026620031      -23.0273348679
 O       -13.9443800889        3.0789857482      -22.3271423803
 C       -14.1948828037        2.3219672729      -24.6241399326
 C       -12.4950597617        0.1185325550      -22.5773545896
 C       -14.9260554615       -0.3854958268      -22.7403114627
 C       -12.1063265490        0.4169818917      -15.7090885342
 C       -12.4544900778        2.8374488160      -15.3582812197
 C        -7.4037375462       -2.6357701539      -14.7482547966
 C        -6.9012966247       -1.2918607527      -12.6347325486
 C        -4.1817142049        1.7210461418      -18.8822337031
 C        -2.0723558052        1.4448400391      -17.5937737772
 C        -7.2976229985        7.4816701881      -15.3043127484
 C        -4.6176936250        7.7709650468      -14.9929383848
 C        -5.3618727263        5.7765528805       -7.5001745072
 C        -4.2126993987        7.6408382728       -8.8854348944
 C         1.3058528658        2.5245251495       -5.9292688024
 C         2.4368903310        3.1464906641       -8.2073882751
 C         1.4630720791       -2.6871646646       -9.8504587867
 C        -0.6910614172       -1.9460127214      -10.8671599420
 C        -2.4684437368       -7.6027417469       -5.2796233225
 C        -0.9997578734       -5.9479089921       -4.0387545610
 C         1.1183033093      -13.2897486211       -3.5447272059
 C        -0.7450071381      -13.1170076871       -1.9533951555
 C         2.0719833158       -8.9523836527        3.2050364139
 C         1.0384726314       -6.9804146876        2.0397841246
 C         6.7190538997       -6.5024637618       -2.7485316118
 C         4.8749634614       -4.6158757030       -2.6721104736
 H         4.5011370790       -6.5819386013       -6.0392097063
 H         5.9415104204       -7.2638125001       -5.3287755527
 H         5.7230276870       -5.6053539782       -5.2117035264
 H         4.7275449510       -5.0651045868       -0.1218401271
 H         5.6146696425       -6.3601757817        0.6271115990
 H         2.6587960016       -6.1079097663        0.4298696633
 H         3.6334883447       -5.6940707312        1.7797034689
 H         1.7929901493      -10.7710209620        1.7409560823
 H         2.8373744942      -10.7492958801        0.5303348870
 H        -0.1667791695      -10.8162213958       -0.0602234022
 H         0.8166022812      -12.3625164925        0.2615926369
 H         1.0271643559      -11.3387180648       -5.3541473404
 H         1.7030724443      -10.4772837644       -4.0854734192
 H        -0.6222181896       -9.8512028133       -5.9775810883
 H         0.9667710964       -9.2011910025       -6.2065681933
 H        -1.6094614448       -4.6742625679       -6.3229245086
 H        -1.9633141532       -5.7437431171       -7.8062349628
 H         0.4676001836       -5.3331240773       -8.3694654199
 H         0.4742764059       -3.9615081406       -7.3088569556
 H        -2.0957456760       -0.7448270244       -7.7710346769
 H        -1.3907097361       -0.0027723053       -9.1868024023
 H         0.1467351764        0.0965906657       -6.6079581844
 H        -1.3546631499        1.2985439813       -6.8961848964
 H        -1.6759090266        3.2680783804       -7.1949051416
 H        -1.3864494471        3.3554480889       -8.9606526665
 H        -1.5897986985        6.0300459211       -8.3232634556
 H        -2.4109139254        5.4188028257       -6.9113145844
 H        -5.4810335405        4.5179452947      -11.6669103164
 H        -3.9622658598        5.2935447155      -11.4446032225
 H        -5.0680324481        7.5160248930      -12.3301379308
 H        -6.5656452645        6.5763328529      -11.9289008285
 H        -3.5789417202        6.1321329638      -16.7320636679
 H        -4.4667720179        6.9435147879      -17.9574347169
 H        -3.4676824312        4.8664115020      -19.0647742268
 H        -5.1068021092        4.2719853604      -18.5990873496
 H        -2.9579281685        1.3180070970      -14.7634351936
 H        -3.2786408591       -0.1013311167      -15.7166323343
 H        -5.4607729605        1.1186114125      -13.9539161147
 H        -4.0637281508        0.0444974010      -13.3066505712
 H        -9.3799194594       -0.7868465350      -15.4366226058
 H        -7.9907125139       -0.6697791765      -16.7588475272
 H        -9.7901025718        0.6129793238      -17.3902047082
 H        -8.3802585857        1.5179257668      -17.1639573843
 H       -13.8539057460        2.3634224853      -18.1611816571
 H       -13.4683441087        0.8048755031      -18.0075570784
 H       -11.8001433891        1.1418891491      -20.2105671608
 H       -12.7306636250        2.6182464309      -20.3214025679
 H       -13.2396042416        1.9331645814      -25.0502039657
 H       -14.1513589473        3.3878865865      -24.7616779667
 H       -15.0683152321        1.8133737274      -25.0674316309
 H       -12.3954504913       -0.7382876003      -21.8809538412
 H       -11.6900382916        0.7915096018      -22.1854499625
 H       -12.4098027934       -0.1664428606      -23.6447381766
 H       -15.8542414340        0.1163728801      -22.6623400587
 H       -14.8366672442       -1.2475978776      -22.1498036359
 H       -14.8079778457       -0.6645003151      -23.8263823773
 H       -13.1640790018        0.5637908257      -15.6356803071
 H       -11.6210423914       -0.0294464617      -14.7497754570
 H       -11.9760428350       -0.2011798511      -16.6028056526
 H       -12.0260713370        3.8262605183      -15.4327306651
 H       -12.7243052851        2.6162251544      -14.3654563700
 H       -13.4294359049        2.8675655614      -15.7655735766
 H        -7.1136047484       -2.7903479133      -15.7827797687
 H        -8.4554974168       -2.6661799800      -14.5611485224
 H        -6.8995784545       -3.3802177216      -14.1685585240
 H        -7.6751161817       -2.0250456549      -12.1947337902
 H        -7.2018685698       -0.3225840422      -12.2416671718
 H        -6.0112234670       -1.4716346685      -12.1220212645
 H        -3.4604211590        1.5425883045      -19.6631407875
 H        -4.8907662464        2.5459232617      -19.2070828861
 H        -4.7729349781        0.9174693921      -18.6407839851
 H        -2.1228125662        0.3521467114      -17.2912290723
 H        -1.4162725227        1.9511970506      -16.9292791810
 H        -1.6755930313        1.3415974249      -18.6487108078
 H        -7.6524548809        7.8341721057      -14.2940689043
 H        -7.9515317015        6.8188783687      -15.7735359693
 H        -7.3731716458        8.3874555002      -15.8468586672
 H        -3.7030180038        7.1606332069      -14.7709141024
 H        -4.7487627619        8.3525252635      -14.0578864329
 H        -4.5292176671        8.5248940392      -15.7580752773
 H        -4.9666386883        6.2302864733       -6.6025136118
 H        -5.5127785285        4.7308157488       -7.4019500397
 H        -6.4155662894        6.0450016874       -7.7148747972
 H        -3.2906714027        7.8101597586       -9.4706984916
 H        -4.0141720339        8.0522592191       -7.8518675581
 H        -5.0590688068        8.2687946817       -9.2904740704
 H         0.5688302336        2.0183301719       -5.3550367715
 H         1.4158324822        3.4130804562       -5.4221307605
 H         2.2441710512        2.0636892712       -5.7131339820
 H         2.4369573555        4.1687521932       -8.5594299976
 H         2.4204145163        2.5399190738       -9.0473015251
 H         3.3475820114        2.9212772843       -7.6274438699
 H         1.5100873411       -3.2071818326      -10.8933311729
 H         1.8533220865       -3.4684123931       -9.1854041331
 H         2.0120773389       -1.7408393259       -9.9315904981
 H        -0.7136203110       -2.7970245343      -11.5949915071
 H        -0.2451902600       -1.1533158011      -11.4816483519
 H        -1.6672713613       -1.7161094731      -10.6830474777
 H        -2.9237847418       -7.7649007032       -4.2697766289
 H        -2.4251539845       -8.4046989709       -6.0265976120
 H        -3.0592629069       -6.8008274791       -5.7234781481
 H        -0.4499005743       -6.2275556669       -3.1588022359
 H        -2.0125985568       -5.6057254600       -3.9196360132
 H        -0.7115529096       -5.1471727549       -4.6636753679
 H         1.7902161372      -12.6806437553       -4.1183252924
 H         0.5043221035      -13.9956022756       -4.1179507971
 H         1.6933727093      -13.9204394905       -2.9382467711
 H        -1.2386377099      -13.6890681355       -2.7686637045
 H        -1.5509717997      -12.4932138052       -1.4951165902
 H        -0.3897226984      -13.6910589390       -1.1735973360
 H         2.4519850597       -8.4861851068        4.0739415706
 H         2.7272593480       -9.8030081217        3.0922553853
 H         1.1884311898       -9.3681436147        3.5631976671
 H         1.6614257066       -6.1905290756        2.4468896597
 H         0.1624141795       -7.1456347552        2.6613918444
 H         0.5309197824       -6.7026585996        1.0920831695
 H         7.1123569634       -6.0471466160       -3.6255355802
 H         6.9646597820       -7.5682081518       -2.6112987178
 H         7.2308317294       -5.9353632692       -1.9400378948
 H         4.5121364884       -4.4507190281       -3.7296779498
 H         5.7079865645       -3.9481789088       -2.5851109299
 H         4.0509174509       -4.2696961470       -2.0875487996
 Na        2.3694563671       -8.6938121075       -2.4294166970
 Na       -7.2906310865        3.0677556056      -15.2626754707
