232

 C         5.1745324453       -6.5367077916       -5.2270090812
 C         4.5299130858       -6.7441897741       -3.8955454632
 O         3.3932145460       -7.2299924411       -3.8564026351
 C         5.2252190972       -6.1543817118       -2.6965857668
 C         4.7699895566       -6.7550529279       -1.3333569102
 O         4.3205861153       -7.9066021198       -1.2655719495
 C         4.9308258615       -5.8994069046        0.0405713103
 C         3.7071188835       -6.3326991805        0.9392024709
 C         3.6085766245       -7.8061592636        1.6220997791
 O         4.5106414330       -8.5152077007        1.8752650800
 C         2.0937740045       -8.2088657109        1.9604064754
 C         1.4805832516       -9.0847212274        0.7314610195
 O         1.1272662237       -8.4160184382       -0.2629189281
 C         1.5518489878      -10.5698279830        0.7061242058
 C         0.5346453930      -11.2969608322       -0.2397575950
 C         1.2206432827      -11.5733880207       -1.6044838979
 O         2.2434061583      -10.9961213180       -1.9668992168
 C         0.4250775105      -12.3210619140       -2.6169413296
 C        -0.0801026308      -11.0752125978       -3.4498750026
 O        -1.1615712168      -10.5085994501       -3.2787558422
 C         0.8226876930      -10.5683968359       -4.5897646377
 C         0.1683627267       -9.4300448321       -5.4366576207
 C        -0.0327067931       -8.1247836280       -4.6051225797
 O         0.5560502313       -7.9653145581       -3.5318749885
 C        -1.0015939666       -7.0550321700       -5.1769207351
 C        -0.5045678804       -6.5805187902       -6.4887813289
 O         0.4744382076       -7.0778824792       -7.0133311542
 C        -1.1370817281       -5.3219787052       -7.0980699282
 C        -0.1946778455       -4.6337056371       -8.1714440666
 C        -0.8980023890       -3.5379399464       -8.9908711945
 O        -2.0783627606       -3.5445207846       -9.1917213975
 C         0.0062766713       -2.4824322358       -9.5919490679
 C        -0.1053070236       -1.5601795820       -8.3143705232
 O         0.4494318004       -1.9330159879       -7.3195818431
 C        -1.1339911238       -0.4060157939       -8.2022683222
 C        -0.5544884157        0.8370425694       -7.3610061233
 C         0.4509044345        1.6724708368       -8.2107424913
 O         0.6381417787        1.3318030142       -9.3585981977
 C         1.1156634887        2.8971192719       -7.5098156667
 C         0.1891034317        4.1565048478       -7.5496216850
 O         0.7087562488        5.1859850404       -7.3850005983
 C        -1.3302370066        3.9542388663       -7.8048079813
 C        -2.2634089733        5.2693455189       -7.7866683772
 C        -3.3678695845        5.1676577552       -8.9015805603
 O        -3.5531677751        4.2056128847       -9.7062214066
 C        -4.5492151808        6.1818268392       -8.8016333049
 C        -5.5484763516        5.9563398457      -10.1097906862
 O        -6.7017593649        6.1401577897       -9.8735940557
 C        -5.1751679884        5.6018867287      -11.5136716949
 C        -5.7744553622        6.5975178590      -12.4941383793
 C        -5.9952439602        5.9264453337      -13.7923599005
 O        -6.4383432072        4.7932718429      -13.8594181060
 C        -5.8201534826        6.8574049948      -15.0958457549
 C        -5.6533109762        5.7885199457      -16.2237243278
 O        -6.5399420965        5.0089523990      -16.5681361435
 C        -4.3997916281        5.8747977498      -17.2230357829
 C        -4.1717480648        4.5741012096      -18.0196184716
 C        -3.3339290889        3.5705443424      -17.2788459943
 O        -2.4709038808        3.9973731440      -16.5107394842
 C        -3.5159437252        1.9686369515      -17.5341217880
 C        -4.3716237425        1.5216566742      -16.3938722143
 O        -5.5692355691        1.9405170307      -16.4795286626
 C        -3.8473007181        0.9149297778      -15.1163575505
 C        -4.8865132104        0.3034630603      -14.1824107769
 C        -5.5308804551       -0.9658486187      -14.7030075366
 O        -4.9312454568       -1.7583736456      -15.4166446710
 C        -6.9730155054       -1.2294350473      -14.1724374277
 C        -7.8737605634       -0.0876105751      -14.6382988717
 O        -7.7201736668        1.0387848717      -14.1086337088
 C        -8.7720265757       -0.3711871929      -15.8692979236
 C        -9.2870731662        0.8638455735      -16.6829143020
 C       -10.1147263856        1.9713535196      -16.0677992239
 O        -9.6203257945        2.9440426214      -15.5365760456
 C       -11.7091364347        1.8493988623      -16.2382752260
 C       -11.9104976248        2.1907999355      -17.6835793443
 O       -11.0494683105        2.8732476975      -18.2537196709
 C       -13.0531562685        1.7040722633      -18.4815241779
 C       -12.7837710636        1.5856305644      -19.9665385787
 C       -13.9522332715        0.9741951789      -20.7426231591
 O       -14.9531871263        0.5528187297      -20.0997145107
 C       -13.7663946346        0.7365916152      -22.2471407577
 C       -13.8339741705        2.1422926088      -22.9538267157
 O       -14.0807610370        3.1067709252      -22.2363030087
 C       -14.1514535913        2.3110196727      -24.4538009107
 C       -12.3489739483        0.0764207393      -22.5821786541
 C       -14.9189114515       -0.2258481637      -22.6437389629
 C       -12.1556459168        0.3836408335      -15.8695957684
 C       -12.5144190694        2.8768556980      -15.3710476794
 C        -7.3967300204       -2.6462990003      -14.6512946807
 C        -6.8252167664       -1.2196762921      -12.6258754913
 C        -4.2796340076        1.6012179262      -18.9090931462
 C        -2.0026375272        1.3886023372      -17.5131259985
 C        -7.1528012873        7.4920586402      -15.1444634329
 C        -4.7220056099        7.9402650748      -15.0724387602
 C        -5.3686192371        5.7609175680       -7.5944675432
 C        -4.0734304368        7.6400008054       -8.5730657854
 C         1.4764576922        2.8212886925       -5.9559301234
 C         2.4594017922        3.2547780157       -8.1502842845
 C         1.5464393548       -2.9090299701       -9.7109296701
 C        -0.5749926730       -2.0525275588      -10.8947136619
 C        -2.4180173790       -7.6561893053       -5.4106119759
 C        -0.9681298258       -5.8577730350       -4.1217033183
 C         1.2486535327      -13.2874652864       -3.4353273030
 C        -0.7418886313      -13.0550881946       -1.9459100808
 C         2.0789329875       -8.9621237995        3.2496689224
 C         1.1757553361       -6.9324588711        2.0992560740
 C         6.8408788674       -6.3567779941       -2.8203832130
 C         4.9437710116       -4.6445438713       -2.8685162638
 H         4.4352729127       -6.2673293835       -5.9355876937
 H         5.7251797206       -7.4613352374       -5.6554378551
 H         6.0233816422       -5.8081652948       -5.2190079253
 H         4.9753949020       -4.8430147337       -0.1234020461
 H         5.8674962941       -6.2118912214        0.4595535997
 H         2.8726772953       -6.2152739933        0.3113099599
 H         3.6469202322       -5.6235030108        1.7312757820
 H         1.6025021122      -10.8872107337        1.7927958865
 H         2.6841340275      -10.7911134100        0.5229796950
 H        -0.3142036176      -10.5503828702       -0.2907145518
 H         0.2274317740      -12.2868862694        0.1765694808
 H         1.1531834779      -11.3326163520       -5.3308333457
 H         1.7617464038      -10.2620897214       -4.2061449490
 H        -0.8015957245       -9.6994977146       -5.8955034074
 H         0.8693065653       -9.2339173497       -6.2535968971
 H        -1.3936380334       -4.6052110168       -6.3893158652
 H        -2.0762623253       -5.6014971997       -7.7008681176
 H         0.3033737365       -5.3879563624       -8.7263277240
 H         0.6372380328       -4.0902010980       -7.6380467329
 H        -1.9647176198       -0.7448939047       -7.6306413740
 H        -1.3757844242       -0.1040064043       -9.2475277396
 H         0.0045220449        0.3549491415       -6.5236280222
 H        -1.4306683805        1.3958942800       -7.0643831492
 H        -1.7361204125        3.2641327351       -7.0159744126
 H        -1.4276018176        3.4668575718       -8.8243771354
 H        -1.7470616467        6.2156841719       -7.9881505876
 H        -2.7320337735        5.3097784110       -6.7822468747
 H        -5.4567620164        4.5179457071      -11.7505212916
 H        -4.0602407385        5.6019986934      -11.5196682865
 H        -5.0501728698        7.3355557301      -12.7084064333
 H        -6.7452918071        6.9971288073      -12.0901432691
 H        -3.4393105534        6.1512726071      -16.7283227437
 H        -4.6345502342        6.6641366705      -17.9112572521
 H        -3.6015969124        4.8681040052      -18.8976778401
 H        -5.1880522594        4.1550994091      -18.3733637241
 H        -3.3798150699        1.7662592706      -14.5661144573
 H        -3.0035588604        0.2848301479      -15.2812603250
 H        -5.6230623851        1.1315327613      -14.1443858867
 H        -4.4254011314        0.0355525374      -13.2179631131
 H        -9.6624641692       -1.0590120285      -15.6248716676
 H        -8.0563379387       -0.7294924861      -16.5948887375
 H        -9.7864601763        0.4854451274      -17.6440584094
 H        -8.3798351369        1.3137880616      -17.0878451843
 H       -14.0201859775        2.2435625789      -18.1691263525
 H       -13.3889649827        0.7092117996      -18.1195727183
 H       -11.8490266907        0.9944652455      -20.0026720092
 H       -12.4788772915        2.5438363253      -20.3751257985
 H       -13.3530725185        1.8191566561      -25.0428550401
 H       -14.0631345646        3.4198640923      -24.6503409008
 H       -15.0599544634        1.8441887386      -24.6281936947
 H       -12.0843147827       -0.6371958721      -21.8384131481
 H       -11.6452613403        0.8174753049      -22.4253181719
 H       -12.3570198797       -0.3607378494      -23.6171067108
 H       -15.8431739089        0.2824025949      -22.6045504367
 H       -14.8686744436       -1.1098622709      -22.0084569488
 H       -14.7632497745       -0.5155898152      -23.6353976177
 H       -13.2581695582        0.2466598629      -15.8607042760
 H       -11.6652269339        0.2909530761      -14.8954996036
 H       -11.6953037907       -0.3025853901      -16.5825400345
 H       -11.9654024851        3.8363355515      -15.2725171742
 H       -12.7477886992        2.4381377985      -14.3961008828
 H       -13.4723881787        3.0999068742      -15.7094001476
 H        -7.5159202109       -2.5349820851      -15.7262287349
 H        -8.3169370978       -2.7862512284      -14.1793605775
 H        -6.6750917614       -3.4277371084      -14.5264747428
 H        -7.5925171402       -1.6825527840      -12.0548107995
 H        -6.6508026597       -0.2529632703      -12.2224370203
 H        -5.9070408286       -1.7071898883      -12.3400855711
 H        -3.5958841443        1.2090658732      -19.6286898165
 H        -4.6628758804        2.4163348192      -19.3327707295
 H        -5.1355687851        0.9680163188      -18.6751769955
 H        -2.0471797823        0.3166949292      -17.6975408547
 H        -1.6332243639        1.4899979183      -16.5227213832
 H        -1.3083660884        1.8111218518      -18.2525447070
 H        -7.3327275502        8.0915171048      -14.2600093543
 H        -7.9197976861        6.7228536652      -15.2907103801
 H        -7.3337053771        8.2743179180      -15.9001995513
 H        -3.6920048298        7.6334971739      -14.9552198640
 H        -4.9949711313        8.5989076044      -14.1930828465
 H        -4.9472274828        8.6668281463      -15.8426833541
 H        -4.7650722546        5.9808421563       -6.6907373584
 H        -5.6647869932        4.7196175400       -7.6424363987
 H        -6.3140377286        6.1984146864       -7.5639642310
 H        -3.1819292535        7.8854331004       -9.2067794897
 H        -3.8055238935        7.9201154010       -7.5571340948
 H        -4.9365794107        8.3020723136       -8.9010107746
 H         0.6921865542        2.4712350301       -5.3815995553
 H         1.8143918966        3.7048761858       -5.4695051634
 H         2.2716906101        2.0729771218       -5.8095426816
 H         2.5702937270        4.2372753274       -8.4262149572
 H         2.4579807937        2.6560679495       -8.9945933046
 H         3.2492955053        2.9511757254       -7.5385870488
 H         1.7228953347       -3.6453720616      -10.4826462925
 H         1.8360351990       -3.3762780266       -8.7779441897
 H         2.1642008486       -1.9988799557       -9.9993299180
 H        -0.4285767583       -2.8109747561      -11.7049739054
 H         0.0924067940       -1.1981304107      -11.2107232972
 H        -1.5922775571       -1.7013231352      -10.9653892979
 H        -2.8359681866       -7.8746134400       -4.4627129338
 H        -2.3031539880       -8.4693518381       -6.2332885675
 H        -3.0560429081       -6.8870417484       -5.8686897841
 H        -1.1563941955       -6.3167828923       -3.1293195907
 H        -1.7229870157       -5.1945737599       -4.4848400381
 H        -0.1082795063       -5.3003460444       -4.3455225160
 H         1.9488742051      -12.7508981132       -4.1016349409
 H         0.5648496660      -13.9931888821       -3.9804469889
 H         1.7941500463      -13.9266645531       -2.8100162345
 H        -1.4223098505      -13.2853032752       -2.7484476129
 H        -1.3067506175      -12.5434693419       -1.1466124323
 H        -0.3893780091      -13.9435527112       -1.4198427440
 H         2.2518829529       -8.4178905349        4.1384726204
 H         2.8717826697       -9.7226814505        3.2067898946
 H         1.2370405467       -9.5049811319        3.6042806988
 H         1.6415687400       -6.2786569183        2.8485254938
 H         0.1164040622       -7.1308882216        2.2867461318
 H         1.0465399799       -6.4302028171        1.1443078785
 H         7.2043808109       -5.9394065271       -3.7978284273
 H         7.1567964015       -7.3645144973       -2.6058835673
 H         7.2822767297       -5.7327587706       -2.0457046303
 H         4.3490683787       -4.4970752543       -3.7472470231
 H         5.8401732443       -4.0596703284       -3.0553649820
 H         4.3687543784       -4.1598897519       -2.0472171326
 Na        2.2782631005       -8.6855753595       -2.3164404805
 Na       -7.3813548321        3.0265219173      -15.2609532787
