232

 C         5.4269981432       -6.4045884880       -5.3267229503
 C         4.8055812253       -6.9318566538       -4.0428971120
 O         4.0243538897       -7.8551543606       -4.1068778641
 C         5.3474896089       -6.2525609344       -2.7363810793
 C         4.8736407469       -7.0180359866       -1.4314742622
 O         4.1746551854       -8.0085066084       -1.3677592781
 C         5.2917420597       -6.3710658596       -0.0683357485
 C         4.0358122717       -6.3585674528        0.8238779828
 C         3.7915998903       -7.7311629992        1.4357131115
 O         4.6958675253       -8.4699988548        1.6320012775
 C         2.3534044672       -8.1957291051        2.0837154599
 C         1.6290011757       -8.8841717887        0.8726158688
 O         1.4507552165       -8.0978190139       -0.0798495693
 C         1.2660226534      -10.3493109650        0.9108864439
 C         0.2343912500      -10.8713148143       -0.1979155856
 C         0.9907898061      -11.3489486823       -1.4470175021
 O         2.1559297862      -10.9928813920       -1.5618857556
 C         0.3511061143      -12.2620262760       -2.5379919005
 C        -0.1617150416      -11.4014524201       -3.7531500007
 O        -1.2924780765      -11.1749362489       -4.0387873877
 C         0.8822150590      -10.5163194570       -4.5222808104
 C         0.3214405128       -9.3969939310       -5.4238224517
 C        -0.1225513515       -8.1250092166       -4.5632118232
 O         0.2707903197       -7.9579962614       -3.4375193540
 C        -1.0709394883       -7.1428526594       -5.1214376493
 C        -0.4899517747       -6.6731535289       -6.5248703132
 O         0.5406372802       -7.1740221963       -6.9550709750
 C        -1.1787984125       -5.4973930659       -7.3751602104
 C        -0.5284339482       -5.2307348943       -8.7462538623
 C        -0.8606390803       -3.7250118176       -9.2115629111
 O        -1.9474838222       -3.4822096103       -9.6459105904
 C         0.2024215662       -2.5352460891       -9.4932296957
 C         0.1990569781       -1.6038248782       -8.2454132520
 O         0.8276955560       -1.7999396650       -7.2169472943
 C        -0.7677518455       -0.3220419906       -8.2775402663
 C        -0.1927501391        0.8368873287       -7.4727470946
 C         0.5697506539        1.8250372488       -8.3325031774
 O         0.5972865973        1.7067792271       -9.5387428372
 C         1.0876452916        3.1401626040       -7.6224840589
 C         0.0518220946        4.2974312664       -7.6875097299
 O         0.5242978658        5.4256010693       -7.6901583320
 C        -1.4848459921        4.0626853317       -7.8109952889
 C        -2.2795184646        5.3711245812       -8.0418748204
 C        -3.5923219621        5.0760260247       -8.7556034393
 O        -3.7371499621        4.1135794990       -9.5605614273
 C        -4.6474795481        6.1548411284       -8.5552959933
 C        -5.5680554972        6.4213910963       -9.8694818388
 O        -6.6031629323        7.0396775470       -9.7123045650
 C        -4.9421077278        6.2872130491      -11.3428482732
 C        -5.9776657072        6.8547927266      -12.3860521350
 C        -6.0593157482        5.9732231492      -13.6084955680
 O        -6.0222123453        4.7280803249      -13.5529368008
 C        -6.1159036283        6.6997594597      -15.0989617488
 C        -6.0409011544        5.6585705818      -16.2035313022
 O        -7.0069593256        5.1049030310      -16.7069042413
 C        -4.6304542309        5.5376908318      -16.8215073439
 C        -4.4680526379        4.3451147871      -17.8195102164
 C        -3.2045962254        3.5258122693      -17.4559744190
 O        -2.1185436754        3.8846216593      -17.1039003172
 C        -3.3921553385        1.8950488320      -17.4279986032
 C        -4.3977600013        1.5877474802      -16.2458222521
 O        -5.5968877082        2.0088371315      -16.3491703384
 C        -3.8785481301        0.8549926256      -15.0252823075
 C        -5.0422175385        0.4057928546      -14.0759143030
 C        -5.7852667509       -0.8847556536      -14.5293744932
 O        -5.3860534270       -1.3522661616      -15.5837717439
 C        -7.0980228043       -1.3300656062      -13.9298139638
 C        -8.0289646445       -0.3239188947      -14.6786939554
 O        -7.8833185879        0.8534223027      -14.4053230244
 C        -9.0359488234       -0.7219547615      -15.6797374183
 C        -9.5130612977        0.4859722448      -16.5852582624
 C       -10.2910343930        1.6627005822      -15.9504212076
 O        -9.7282522892        2.5063759470      -15.3497068619
 C       -11.8298037047        1.7687646897      -16.1038229934
 C       -11.8631935480        2.3379840450      -17.6480828398
 O       -10.8801858987        2.9878170836      -17.9753340839
 C       -13.1427927762        1.9839579730      -18.4745935274
 C       -12.8052021142        1.3432260061      -19.9211367715
 C       -14.0688448799        0.8541242962      -20.8080044763
 O       -15.1533399119        0.5547658445      -20.3398113812
 C       -13.8643184359        0.7990943089      -22.4216822705
 C       -13.8967965975        2.3419256737      -23.0689865078
 O       -13.7920707358        3.1900580019      -22.2218798832
 C       -13.8150471744        2.7034317800      -24.5629577127
 C       -12.3850415998        0.2747901273      -22.6247662519
 C       -14.8279181744       -0.2848310522      -23.0050120835
 C       -12.4388484455        0.3126126463      -15.9437286361
 C       -12.4406461022        2.8311122564      -15.1447337442
 C        -7.3369827923       -2.8054978513      -14.4541320883
 C        -7.3435454927       -0.9879753306      -12.5085660488
 C        -4.0105740549        1.5510024934      -18.7422255460
 C        -2.0538213200        1.0696408527      -17.2828996128
 C        -7.5172110474        7.4478620445      -15.3792817897
 C        -5.1565044948        7.8811311492      -15.1323431730
 C        -5.4523198460        5.7095644301       -7.3264981260
 C        -4.1303383408        7.5937480917       -8.2187595493
 C         1.4446587379        2.7982477612       -6.1313458068
 C         2.3477419790        3.7112539637       -8.3855796554
 C         1.7257793429       -2.9784525770       -9.6191000473
 C        -0.2900870599       -1.8258320421      -10.7950761874
 C        -2.4526131765       -7.7903292094       -5.4995143994
 C        -1.1825467236       -5.8566039545       -4.1864278237
 C         1.5282906544      -13.0998206226       -3.2649954648
 C        -0.7677879421      -13.1592267737       -1.9656846291
 C         2.7876935179       -9.0840982068        3.3167890815
 C         1.5399798886       -6.9716239590        2.5420408435
 C         6.8966220101       -6.4200460535       -2.8355930759
 C         5.0306732956       -4.7738665446       -2.7741877789
 H         4.7212845890       -6.0207105841       -6.0117605366
 H         5.9651037084       -7.2053730540       -5.8881559008
 H         6.2436714737       -5.7687442379       -5.0983046299
 H         5.7521091690       -5.4277922216       -0.2008818586
 H         5.9985499482       -6.9708768350        0.4673113738
 H         3.2690815053       -5.9641704730        0.2861807272
 H         4.2854816086       -5.7071985329        1.6041167210
 H         0.9018226008      -10.5271488080        1.9558666896
 H         2.1813831820      -10.9644924922        0.9629391072
 H        -0.4526699955      -10.0981951404       -0.6361819841
 H        -0.3207830268      -11.6604698325        0.3427326965
 H         1.5467613640      -11.1359462460       -5.1122163677
 H         1.5637357629      -10.0801409617       -3.8434179701
 H        -0.4795816559       -9.7730541672       -6.0345448177
 H         1.1164609526       -9.0126891336       -6.0389610034
 H        -1.5103463645       -4.6219346680       -6.8993122689
 H        -2.2038844081       -6.0263549800       -7.5744726047
 H        -0.8487219648       -5.8878306147       -9.5369317053
 H         0.6086820298       -5.3533507838       -8.5934601150
 H        -1.5433119253       -0.7316383350       -7.7115070228
 H        -0.9856919003        0.0919847298       -9.2248091467
 H         0.5618952244        0.4718331524       -6.6686120681
 H        -1.0798332135        1.4419981150       -7.0794939177
 H        -1.7435959726        3.6285626165       -6.7598439755
 H        -1.7886223789        3.3808016241       -8.5897305706
 H        -1.6734452540        6.0255750767       -8.6242797242
 H        -2.5545804714        5.7114799008       -7.0447966720
 H        -4.7483730366        5.2369648294      -11.4678097681
 H        -3.9323048318        6.7033545300      -11.4216100281
 H        -5.8649515326        7.8545287021      -12.6368340243
 H        -6.9670799204        6.5920266096      -11.9593228312
 H        -3.8179284391        5.5272584921      -16.0864192937
 H        -4.4694225746        6.4078316447      -17.3538496061
 H        -4.2301587848        4.7559084227      -18.7944645483
 H        -5.4562916639        3.7628397526      -17.9532588286
 H        -3.0228752036        1.4972164295      -14.5675053680
 H        -3.2866212801       -0.0118182119      -15.2771854621
 H        -5.7996781652        1.2331937958      -14.1127522753
 H        -4.6504685175        0.2847454490      -13.0463092916
 H        -9.9487029095       -1.1323734505      -15.0212405752
 H        -8.6100945352       -1.4893801353      -16.3504815211
 H       -10.0176352361        0.1904412461      -17.5388362830
 H        -8.5763681087        0.8613459875      -16.9035150498
 H       -13.7350638890        2.8800498236      -18.7522949801
 H       -13.8271462094        1.4426997392      -17.8328842874
 H       -12.0621559845        0.5238889010      -19.8364168572
 H       -12.2854622280        2.0929344692      -20.5368458212
 H       -13.3581395798        1.8096696786      -25.0085200714
 H       -13.0051183007        3.4841360534      -24.4983948572
 H       -14.7120626381        2.9790420919      -25.0595694314
 H       -12.3384324353       -0.8062409723      -22.3227673532
 H       -11.7149231238        0.9131280433      -22.0373521895
 H       -12.0539656856        0.1914755897      -23.7287814052
 H       -15.8711294570       -0.2135656571      -22.6407174179
 H       -14.4484328290       -1.2792785130      -22.6230766511
 H       -14.7837180990       -0.2242760426      -24.0433921225
 H       -13.5699578821        0.3490117163      -15.7696853978
 H       -12.0401372246       -0.1691358639      -15.0663937872
 H       -12.1355866568       -0.2967915464      -16.8381775514
 H       -12.2425472921        3.8253011566      -15.4600118179
 H       -12.0698246531        2.7048494331      -14.1312101494
 H       -13.5121759993        2.7894514244      -15.1991806744
 H        -6.8861145320       -2.9190913074      -15.4436429680
 H        -8.4123732320       -2.8295207675      -14.5097590329
 H        -6.9211832124       -3.5653212485      -13.7932813581
 H        -8.2059942928       -1.4745200627      -12.1770141004
 H        -7.4452999664        0.0753587112      -12.2053262040
 H        -6.4901532178       -1.3954240572      -11.8471030975
 H        -4.0888124281        0.4757980901      -18.7513215180
 H        -3.4136735292        1.8250977659      -19.5460341871
 H        -5.0167432496        2.0124916096      -18.8778215736
 H        -2.3238313597        0.1739366060      -16.7649916241
 H        -1.2299381273        1.5667439363      -16.6808560491
 H        -1.5978273077        0.9506241810      -18.2723480861
 H        -7.9204965981        8.0236108869      -14.6191102318
 H        -8.3333696765        6.7377515466      -15.5610365381
 H        -7.4341355572        8.1217897069      -16.2149516934
 H        -4.1821636094        7.5923946415      -14.7620346837
 H        -5.4959983611        8.6555055679      -14.3927061873
 H        -5.0124910211        8.3291123592      -16.1314675060
 H        -4.7845361639        5.6249036511       -6.4181353282
 H        -5.8765368293        4.6913049882       -7.4912285303
 H        -6.2244432476        6.3656127999       -7.0271686139
 H        -3.3685406875        8.0097336033       -8.9249187930
 H        -3.5707742560        7.6179784075       -7.3065111749
 H        -4.9776433583        8.2941430560       -8.2618737553
 H         0.6356653925        2.4784518860       -5.5698493038
 H         1.7921746200        3.7162814063       -5.6437844361
 H         2.1387667336        2.0119342064       -5.9489581191
 H         2.8639046464        4.1659502181       -7.5600968571
 H         2.1326082956        4.5270188189       -9.1340236869
 H         3.0052989141        2.9659723012       -8.7423590370
 H         1.8674649835       -3.6416340730      -10.4320159602
 H         1.9357013876       -3.4615271441       -8.6292148779
 H         2.5842485247       -2.2331211352       -9.8309877975
 H        -0.1715766469       -2.5400000842      -11.5257083420
 H         0.1857156662       -0.9257117946      -10.9498305511
 H        -1.3375721829       -1.4740331813      -10.8434512978
 H        -2.7325947867       -8.1479907641       -4.5334885052
 H        -2.3457791174       -8.6534410425       -6.2229543086
 H        -3.1618665183       -7.0519502584       -5.9380455402
 H        -2.2063837371       -5.4742714832       -4.3724010346
 H        -0.4785611768       -5.1011417198       -4.5278982006
 H        -0.9788278230       -6.2584588277       -3.2058500522
 H         2.4817573339      -12.6249821132       -3.1771706224
 H         1.2861447774      -13.3533509962       -4.2797638580
 H         1.6024993516      -14.0220120890       -2.6703408190
 H        -0.8530355351      -14.0199774600       -2.5786182426
 H        -1.6837884001      -12.5860015332       -1.9702987615
 H        -0.6495522126      -13.5307058701       -0.8934098838
 H         3.3781596998       -8.5880392418        4.0230153357
 H         3.1279641917      -10.0646760466        3.2182253686
 H         1.9461048156       -9.2704677965        3.9411951610
 H         2.1862074657       -6.1936953027        3.0203470268
 H         0.7598337715       -7.2480123470        3.2977693252
 H         1.0586790380       -6.4228345700        1.7206658190
 H         7.3018403300       -5.8642102138       -3.7297389617
 H         7.1805855275       -7.4590005387       -2.8588015097
 H         7.2218316584       -5.9659184197       -1.9295983376
 H         4.2141403433       -4.6376993222       -2.1298335202
 H         4.6423280607       -4.4982947814       -3.7602067309
 H         5.8887543054       -4.0950574885       -2.5424716251
 Na        2.2891603073       -8.7939064213       -2.3308866102
 Na       -7.3744175933        3.2810003184      -15.2549572410
