232

 C         5.4240891055       -6.3410128477       -5.4052980744
 C         4.9088402403       -7.0657155238       -4.0887030722
 O         4.0343687680       -7.8766436036       -4.2044085932
 C         5.3407305119       -6.4179083089       -2.7156535913
 C         4.9180444026       -7.0987498435       -1.3626015182
 O         4.2113714035       -8.0747605326       -1.2312220988
 C         5.2648175869       -6.3063070783       -0.1087078945
 C         4.0414812894       -6.3890758529        0.7778718049
 C         3.9066470896       -7.7338581446        1.4219793142
 O         4.8375422142       -8.5705644302        1.5521862439
 C         2.4771403879       -8.1374445791        2.0440628479
 C         1.6256859784       -8.7701034029        0.8661027338
 O         1.4838791676       -8.1353603850       -0.1665732233
 C         1.1834850031      -10.2745097977        0.9799872510
 C         0.1817299550      -10.7027944078       -0.1898870638
 C         0.9718674417      -11.2143133496       -1.4424546833
 O         2.0902639277      -10.8717098543       -1.6499864186
 C         0.3691197807      -12.2008526001       -2.5280058116
 C        -0.1983104304      -11.3021599941       -3.7259898297
 O        -1.3431465562      -11.3794267425       -4.0772820852
 C         0.9634143770      -10.5295783156       -4.4443122028
 C         0.4249003847       -9.4799110491       -5.3273144368
 C        -0.0785853901       -8.2037264994       -4.5504639403
 O         0.3143374502       -7.9881234570       -3.4276564071
 C        -1.0947806422       -7.1706798079       -5.2745238397
 C        -0.4841272188       -6.6280082413       -6.7126976669
 O         0.6212941935       -6.9712754209       -7.0448804618
 C        -1.2313801939       -5.4759318366       -7.3901411473
 C        -0.5292829581       -5.0904604266       -8.6903598613
 C        -0.8011114171       -3.6999308558       -9.3041176741
 O        -1.9574780211       -3.5335052626       -9.6800462454
 C         0.2517903712       -2.5852132631       -9.4893934569
 C         0.1818552875       -1.6270677393       -8.1928146228
 O         0.9711461459       -1.8896930314       -7.2871810807
 C        -0.7698368990       -0.3497197052       -8.1951891033
 C        -0.1488342445        0.8090672787       -7.4306381541
 C         0.5934388014        1.8695352576       -8.4156140096
 O         0.4844072261        1.8222821962       -9.6235690628
 C         1.2665192976        3.1709017494       -7.7158854611
 C         0.0416003893        4.2728344438       -7.7994730774
 O         0.3880740068        5.4639982369       -7.7268874934
 C        -1.4465561445        3.9373973490       -7.8219823891
 C        -2.2949215244        5.3146255786       -8.0557972173
 C        -3.5544871887        5.2089886113       -8.9182759779
 O        -3.8995723095        4.2139067833       -9.4456393606
 C        -4.6633053501        6.3695357179       -8.6679596702
 C        -5.6161144715        6.7352718094       -9.8571615576
 O        -6.7663223927        7.1388957053       -9.7845413749
 C        -5.1021748291        6.2647177791      -11.2236994039
 C        -6.0583187853        6.7590258523      -12.3246987145
 C        -6.1021795018        5.8957148619      -13.5617406435
 O        -6.0671553239        4.6594779368      -13.4521027612
 C        -6.2015023024        6.7389128764      -15.0590749159
 C        -5.9911734367        5.7522342714      -16.2827621371
 O        -6.9541250633        5.0479983536      -16.5714092257
 C        -4.5770137500        5.4979162275      -16.8174127832
 C        -4.4035817216        4.3385942621      -17.7676897776
 C        -3.1584688786        3.4142321334      -17.4723142913
 O        -2.1249179162        3.9399008954      -17.2235053241
 C        -3.4618332735        1.7898497139      -17.4408178475
 C        -4.4275941129        1.6198912613      -16.1487201194
 O        -5.6230939525        1.9237265344      -16.2216847943
 C        -3.9158997302        0.8570868150      -14.9807231033
 C        -5.0097208882        0.4785811835      -14.0136886727
 C        -5.7377968622       -0.7722134262      -14.5794826106
 O        -5.5129566383       -1.3349880448      -15.6201750378
 C        -7.2028589250       -1.2470700752      -13.8994476824
 C        -8.0907168271       -0.2044155549      -14.6644379655
 O        -7.8336426191        0.9308063410      -14.4025649194
 C        -9.1006241743       -0.6903385985      -15.7985870338
 C        -9.6619578563        0.4582123112      -16.6561838863
 C       -10.3020746329        1.6595826544      -15.8507874520
 O        -9.6374616609        2.5928104230      -15.4086753796
 C       -11.8445937049        1.7493999046      -16.1053955247
 C       -11.8953988633        2.2687442241      -17.5791228117
 O       -10.9974195407        2.9655379930      -17.9918570568
 C       -13.1554540371        2.0358873510      -18.5810230457
 C       -12.9071420112        1.3697929774      -19.9072276272
 C       -14.0873032112        0.9315172296      -20.8677818450
 O       -15.0958770443        0.4951278958      -20.4652250561
 C       -13.8069675203        0.8513645641      -22.4147923019
 C       -13.7212081031        2.3479629987      -22.9376373607
 O       -13.7732168166        3.3177031455      -22.2495935538
 C       -13.8110606395        2.5628954862      -24.4815770942
 C       -12.3761326252        0.3133109881      -22.7071738042
 C       -14.8069302489       -0.1227871713      -23.0584565680
 C       -12.4969924035        0.3499840858      -15.9403232188
 C       -12.4424785745        2.7463732168      -15.1740881163
 C        -7.3302853308       -2.8419840472      -14.2738561662
 C        -7.2861486293       -1.1494737569      -12.3609795303
 C        -4.0603797205        1.3549740092      -18.7564338199
 C        -2.0930940854        1.1809393915      -17.2414081114
 C        -7.7244841818        7.3736527790      -15.2228639379
 C        -5.1973194516        7.9200213939      -15.1592719333
 C        -5.5162968069        5.6675823480       -7.5035262582
 C        -4.0506612541        7.6729135602       -8.0824099003
 C         1.4534258266        2.9044061284       -6.2012744064
 C         2.5394527076        3.7907845719       -8.3166557009
 C         1.6636302260       -3.0172870240       -9.6054797026
 C        -0.0891022159       -1.9207407803      -10.8154978811
 C        -2.4762275220       -7.8484415244       -5.4402076331
 C        -1.2232652575       -5.9796883773       -4.3505666901
 C         1.5063198992      -13.0235265046       -3.1385573725
 C        -0.6481466383      -13.1269808088       -1.8544178034
 C         2.7676949278       -9.1395878297        3.1608351037
 C         1.7957366690       -6.9355852764        2.6938749001
 C         6.9792274437       -6.6073882370       -2.6703762236
 C         4.8642134249       -4.9612759758       -2.6371403745
 H         4.6382096163       -6.2142950691       -6.2464860311
 H         6.1398395092       -7.0164619733       -5.8370065213
 H         6.1033159809       -5.5124810030       -5.1998845529
 H         5.6081269845       -5.3523774450       -0.3720001102
 H         6.1030178974       -6.7254070138        0.4169698513
 H         3.2238383194       -6.2418900522        0.1000967991
 H         4.0499574338       -5.5957535729        1.4922975967
 H         0.7599870831      -10.5512433399        2.0492619899
 H         2.1236600083      -10.9404611000        0.9943588850
 H        -0.6109415218       -9.9940107649       -0.5676594665
 H        -0.2688367416      -11.5717228409        0.3388107738
 H         1.4491738849      -11.2287863997       -5.0843390131
 H         1.7677109331      -10.2667351554       -3.7065221720
 H        -0.3504127806      -10.0289994404       -5.8588133396
 H         1.1416046562       -9.0165057758       -6.0303193417
 H        -1.3554411517       -4.6521114200       -6.6821500901
 H        -2.2776152381       -5.7232085470       -7.4832197727
 H        -0.8285689502       -5.7783551498       -9.4813548389
 H         0.5349654603       -5.2748218547       -8.4812389826
 H        -1.6999302764       -0.7309732133       -7.6604883665
 H        -0.8537638161        0.0664654502       -9.1759647678
 H         0.6278975047        0.5347563296       -6.7181654154
 H        -0.9994050547        1.3762513969       -6.9943541809
 H        -1.6628583397        3.4697697813       -6.7482821929
 H        -1.6782939628        3.2288316789       -8.6231095578
 H        -1.5878441951        5.9323473576       -8.5985257729
 H        -2.5534938061        5.6747899410       -7.0634992999
 H        -4.8352450248        5.1786161065      -11.1643310336
 H        -4.0497063750        6.7556165614      -11.4295110403
 H        -5.6600118130        7.6829629967      -12.6670955519
 H        -7.1107313840        6.8241544909      -11.9846630962
 H        -3.9827270906        5.2499964332      -15.8793515102
 H        -4.1051441805        6.3916575117      -17.1724319410
 H        -4.3006790640        4.6844354729      -18.8478363404
 H        -5.3688429141        3.7963657981      -17.7310175555
 H        -3.0531095862        1.2858020151      -14.4742253732
 H        -3.4547484632       -0.0522893168      -15.3173941784
 H        -5.7881042746        1.2517534560      -13.8953588741
 H        -4.5062862216        0.2465149051      -13.0407952228
 H        -9.9516133587       -1.0971020087      -15.1941816502
 H        -8.7052082493       -1.4819420498      -16.4792764788
 H       -10.4428226990        0.1085543629      -17.3810338418
 H        -8.7868198933        0.7619622540      -17.3208780960
 H       -13.6530966816        3.0313205364      -18.8052032577
 H       -14.0054580432        1.4375749844      -18.0511014305
 H       -12.5908627002        0.3974645820      -19.6142703104
 H       -12.0329561278        1.7471873371      -20.4942408663
 H       -13.6311273356        1.6467398107      -25.0302635951
 H       -13.0948033240        3.3093969627      -24.6666918114
 H       -14.8846927731        2.9180336389      -24.7097276198
 H       -12.3753678619       -0.7243835537      -22.3596729941
 H       -11.5207836497        0.9332046967      -22.3408713555
 H       -12.2809335220        0.1650814248      -23.7443579236
 H       -15.7552757096        0.1236459030      -22.6310176126
 H       -14.6197263602       -1.1157385419      -22.7409980814
 H       -14.8174502930       -0.0134866446      -24.1269009744
 H       -13.5989131759        0.4620361456      -15.8936434104
 H       -12.2334199045       -0.0702683277      -14.9786944683
 H       -12.1622402613       -0.3601893553      -16.7379814168
 H       -12.1271300071        3.7232794403      -15.3712703087
 H       -12.1484428773        2.5282849537      -14.1655434861
 H       -13.5637050738        2.8018594096      -15.3497495973
 H        -6.6955277752       -3.1611640051      -15.0402146228
 H        -8.3670217927       -2.8454084206      -14.5896653771
 H        -7.2392276212       -3.4602112075      -13.4037978202
 H        -7.9692183110       -1.8664795740      -11.9441487381
 H        -7.4697844830       -0.2429787095      -11.8253616078
 H        -6.3211245598       -1.5502195314      -12.0328031351
 H        -4.5189598388        0.4344539701      -18.6701888154
 H        -3.1767792414        1.2810719766      -19.4516667767
 H        -4.7008024249        2.0203233935      -19.2057524245
 H        -2.2188008888        0.3531619986      -16.6130975169
 H        -1.3380679824        1.8350884924      -16.7433728625
 H        -1.6449500592        0.9878682552      -18.1559109034
 H        -8.0764106781        7.8549369584      -14.3250990133
 H        -8.5747820517        6.6845694677      -15.3243925560
 H        -7.7509052164        8.1487482795      -15.9914465283
 H        -4.2038192770        7.4556178525      -14.9664092156
 H        -5.2673434023        8.7481782033      -14.4619797282
 H        -5.1025092702        8.2632998067      -16.2285127541
 H        -4.9240548703        5.7334569403       -6.6019707833
 H        -5.6010422035        4.5904879546       -7.6842139311
 H        -6.4660993479        6.1235035636       -7.1652530373
 H        -3.0895996472        8.1051997144       -8.4774078839
 H        -3.7868202243        7.5341903654       -6.9925604408
 H        -4.7804443174        8.4511737814       -8.2219142454
 H         0.7211746694        2.2563660211       -5.7277490744
 H         1.4958994284        3.8385978880       -5.6568511461
 H         2.3174072473        2.4008350798       -6.0436639147
 H         2.8812010750        4.3871855364       -7.5380185879
 H         2.3776542251        4.3842890959       -9.1590405895
 H         3.2697921137        3.0742457667       -8.4711324432
 H         1.7850940666       -3.2500506948      -10.6594789387
 H         1.8859061140       -3.8917147503       -8.9716078649
 H         2.4965666227       -2.3409418695       -9.3836457199
 H        -0.0751846779       -2.6727715902      -11.5769034214
 H         0.4499267644       -1.0176026254      -10.9997745761
 H        -1.1087838123       -1.4652557513      -10.7529798376
 H        -2.7265381673       -8.0481570292       -4.3478161934
 H        -2.2970117401       -8.8139641503       -5.8540699696
 H        -3.2566728315       -7.3144764104       -6.0758034819
 H        -1.8561073645       -5.2500784599       -4.7872926232
 H        -0.2290728640       -5.5279869006       -4.3254002426
 H        -1.5558611392       -6.4651110180       -3.3984292819
 H         2.3582885720      -12.4473336426       -3.4558126813
 H         1.0935104188      -13.5004474070       -3.9752416265
 H         1.9198308894      -13.7884108804       -2.3801874305
 H        -0.8169369835      -14.1241825670       -2.2711735794
 H        -1.5470534576      -12.5936568301       -1.6313513535
 H        -0.2084962358      -13.3602949831       -0.8276989527
 H         3.4789328489       -8.6929128210        3.8625053951
 H         3.1954068715      -10.0761199878        2.9477912769
 H         1.9973153627       -9.4781575646        3.8486013445
 H         2.4245398888       -6.2043066455        3.2315390614
 H         1.0556872505       -7.3045466511        3.4253202147
 H         1.3046476811       -6.2921799985        1.9418215606
 H         7.3520027819       -5.9512937143       -3.4546282691
 H         7.2470427053       -7.6371266024       -2.9376828738
 H         7.3233417588       -6.2853361197       -1.6829434411
 H         4.3175615154       -4.8690658591       -1.7084000110
 H         4.1935689119       -4.6002163473       -3.4296724550
 H         5.7491029766       -4.3468273679       -2.6202137171
 Na        2.2938643638       -8.8141071234       -2.4892033388
 Na       -7.3826621481        3.1625167195      -15.1753992377
