232

 C         5.3919585280       -6.4135975333       -5.3341557303
 C         4.8722217532       -7.0982915298       -4.0845858340
 O         3.9777259771       -7.9456511170       -4.1911335223
 C         5.4197708010       -6.5544342789       -2.7116410458
 C         4.9161829713       -7.1702629177       -1.3733948475
 O         4.2427019482       -8.1917482322       -1.3193633745
 C         5.2279329212       -6.3724827563       -0.0917837458
 C         4.0269391621       -6.4009539218        0.8925819349
 C         3.9668865738       -7.8202950735        1.4788011000
 O         4.9403140651       -8.5303614199        1.4337519863
 C         2.6045949662       -8.1990977893        2.0758736491
 C         1.7269011465       -8.7470583889        0.7657047344
 O         1.5003976817       -8.1315385471       -0.2357547899
 C         1.0964595267      -10.1610837871        0.9418518999
 C         0.2466396155      -10.6067544269       -0.2144468262
 C         1.0252829234      -11.0889506195       -1.4011144632
 O         2.1632739124      -10.6442904534       -1.6384640719
 C         0.4135762518      -12.1577701618       -2.3428826113
 C        -0.1551995300      -11.3317882843       -3.6283051206
 O        -1.2981447990      -11.4843643365       -4.0684040028
 C         0.8083914587      -10.6447801968       -4.5693273011
 C         0.3925843984       -9.4428643149       -5.3918680673
 C         0.0066614360       -8.2155979191       -4.6700546256
 O         0.3362450002       -7.9644499774       -3.4777897344
 C        -1.0120684122       -7.2696592361       -5.2944607901
 C        -0.4426906840       -6.5630655002       -6.6852374123
 O         0.6417178041       -6.8582484097       -7.1284256633
 C        -1.2143492682       -5.4616634472       -7.4242971047
 C        -0.3947151243       -5.0556523759       -8.6492629488
 C        -0.9027934071       -3.7404484679       -9.3284552951
 O        -2.0505325870       -3.5054495673       -9.6904494342
 C         0.2935796587       -2.6539121232       -9.5221667276
 C         0.2548585501       -1.6092202288       -8.2572060213
 O         0.9619094826       -1.8818869503       -7.3193597033
 C        -0.6734175146       -0.4397361153       -8.2256376203
 C         0.0402852225        0.8068277100       -7.5555876273
 C         0.5530238587        1.9368895107       -8.4328865072
 O         0.4283391290        1.8553722230       -9.6314138353
 C         1.2142990851        3.2226533506       -7.6830878659
 C         0.0054256782        4.3800718189       -7.8224069199
 O         0.3589745025        5.5013528807       -7.7925458155
 C        -1.4689998383        3.9543325351       -7.9689502548
 C        -2.2613720088        5.2779617901       -8.0699682702
 C        -3.6028338711        5.2516515605       -8.8063938322
 O        -4.0039197905        4.3456731270       -9.4814332415
 C        -4.6657133646        6.4338560796       -8.5588759065
 C        -5.6517068449        6.7401285609       -9.8276074908
 O        -6.7191433221        7.2438341431       -9.6451046238
 C        -5.2233793798        6.2746236927      -11.2627365145
 C        -6.0891601480        6.8230293308      -12.3785664828
 C        -6.1434374109        5.9225951337      -13.7265604469
 O        -6.2403480454        4.7354166454      -13.6946409517
 C        -6.2639742446        6.7167518310      -14.9907334358
 C        -5.9843769714        5.6575763595      -16.1102255193
 O        -6.8288692835        4.8926166183      -16.5266531358
 C        -4.5680258323        5.4617714909      -16.6687681867
 C        -4.4916334485        4.3557396174      -17.7383784050
 C        -3.2972775006        3.4062775697      -17.4520992856
 O        -2.1642215024        3.8948684384      -17.3298277979
 C        -3.4568821499        1.8231985447      -17.3934079813
 C        -4.4516498295        1.4947216713      -16.2359501171
 O        -5.5401220116        1.9829378680      -16.2517281843
 C        -3.9233048151        0.7696700133      -14.9175003682
 C        -5.0475529333        0.2971895510      -13.9035060094
 C        -5.8629929568       -0.7308796940      -14.6060211449
 O        -5.4120747143       -1.2012983484      -15.6225073673
 C        -7.1939531936       -1.3189363551      -13.8909767044
 C        -8.1425415022       -0.2145419255      -14.5688877048
 O        -7.9379965072        0.9821448264      -14.3871982527
 C        -9.0698931220       -0.5966486649      -15.6857266636
 C        -9.5101725889        0.5122872990      -16.6488840552
 C       -10.3270055609        1.6696890321      -16.0291762505
 O        -9.7269614345        2.6161123404      -15.4722029639
 C       -11.8756220540        1.6911025841      -16.1581556368
 C       -12.0500214515        2.2727828724      -17.7213557833
 O       -11.1455913586        2.9268528658      -18.1351068507
 C       -13.2787473777        2.0429461991      -18.5764983987
 C       -12.8393484518        1.2818631649      -19.8011790652
 C       -13.9645759052        0.8865920648      -20.8092604920
 O       -15.0786883205        0.5426535677      -20.4284690606
 C       -13.6990350288        0.9281361883      -22.3988677887
 C       -13.7874478927        2.3745658415      -22.9110474216
 O       -13.6986301987        3.3602747422      -22.1677547200
 C       -13.8307606571        2.4316837409      -24.5146672729
 C       -12.2451443984        0.3140475556      -22.7706736995
 C       -14.7999410617        0.2256931824      -23.0939655803
 C       -12.6290770093        0.3748197126      -15.9169532944
 C       -12.5080774535        2.7448547052      -15.1609713126
 C        -7.4727596433       -2.7665757460      -14.1625369052
 C        -7.1377761887       -1.1868639740      -12.3124083269
 C        -4.2088609186        1.2276758017      -18.7146125414
 C        -1.9942735614        1.2589024717      -17.1260452317
 C        -7.6753847927        7.1612177105      -14.9473158344
 C        -5.2808689475        7.8434332268      -15.0754529884
 C        -5.6850016162        5.7451450788       -7.6790122177
 C        -4.0137852735        7.7548659848       -8.0032373142
 C         1.4612536807        3.0784770188       -6.2036445016
 C         2.5066720056        3.6880154377       -8.3020601774
 C         1.7696351791       -3.2350621041       -9.5827577837
 C        -0.0072907277       -1.8252166713      -10.8448604605
 C        -2.4578423481       -7.9615108033       -5.4466422728
 C        -1.2726232259       -5.9873718484       -4.4107449144
 C         1.5345091476      -13.0822456170       -2.8736665557
 C        -0.6999788148      -13.1102842244       -1.7936584984
 C         2.7294590500       -9.2941147297        3.0810638615
 C         1.9715719426       -6.8907754191        2.7163567463
 C         7.0140412503       -6.6974524918       -2.5758040615
 C         4.8050929058       -5.1030573328       -2.6697533750
 H         4.6888018523       -6.5594616180       -6.1830385559
 H         6.3402760146       -6.8667563383       -5.6760219395
 H         5.7411642535       -5.3593022140       -5.1332989592
 H         5.7321304225       -5.4193634007       -0.3749321394
 H         6.0685126185       -6.9183486712        0.3783351350
 H         3.1557004646       -6.0633340572        0.2055571241
 H         4.1485538509       -5.6305973880        1.7039290436
 H         0.4848767997      -10.1862742620        1.8642482181
 H         1.9382655411      -10.8527942611        1.2564905117
 H        -0.2479917587       -9.7260963406       -0.6671537219
 H        -0.4766251263      -11.2933128147        0.2214909128
 H         1.1400033476      -11.4078097986       -5.3092120069
 H         1.7014336504      -10.4338787263       -3.9056081898
 H        -0.4025571001       -9.7556405970       -6.1137700807
 H         1.2451907705       -8.9945474587       -5.9668518820
 H        -1.2116498230       -4.6047541078       -6.6761369724
 H        -2.2396512897       -5.4760386802       -7.5509104948
 H        -0.4523215247       -5.8753950968       -9.4120332651
 H         0.5797536297       -4.9593825782       -8.3319526741
 H        -1.4706512787       -0.7678632631       -7.4827320627
 H        -0.9833518057       -0.1308963236       -9.2731629425
 H         0.8807728664        0.5546158927       -6.9923053403
 H        -0.6949231811        1.2335014014       -6.9122736374
 H        -1.8269954879        3.4066067568       -7.1547300703
 H        -1.5317553901        3.3337564079       -8.9280214512
 H        -1.5838508807        5.9368449535       -8.6738157112
 H        -2.3748729962        5.5588364762       -7.0294197601
 H        -5.3663969247        5.1331674780      -11.3427265955
 H        -4.1155677286        6.3774807981      -11.3714611256
 H        -5.8842637731        7.9271834573      -12.6569786140
 H        -7.1031832444        6.6667528734      -12.0289541012
 H        -3.8008549799        5.2963211206      -15.8983737644
 H        -4.2771999873        6.4858328698      -17.1740503021
 H        -4.5296181250        4.7062123464      -18.8013528742
 H        -5.3788329215        3.8116327672      -17.5752693162
 H        -3.4369798051        1.4944222739      -14.3687669032
 H        -3.0922836790        0.0533079053      -14.9919629690
 H        -5.6496872053        1.1089470968      -13.5211977467
 H        -4.5259451678       -0.1903472894      -13.0577800051
 H        -9.8649604067       -1.1721030319      -15.3636890833
 H        -8.5018837819       -1.2486497271      -16.3930744923
 H       -10.2178460445       -0.0200377090      -17.3069544599
 H        -8.6105287876        0.7356498482      -17.3272043088
 H       -13.6535716163        3.0054062934      -19.0048100062
 H       -14.1579029859        1.6055456250      -18.0093263793
 H       -12.1367272854        0.4833828442      -19.5952466644
 H       -12.2959966609        1.9947741889      -20.4098958881
 H       -13.6840445286        1.4430417483      -24.9363780531
 H       -13.1057934117        3.1298762527      -24.8696113412
 H       -14.8663297060        2.7256972137      -24.7435084254
 H       -12.1703092046       -0.6141350734      -22.2847869252
 H       -11.3869092248        0.9595328321      -22.6772746085
 H       -12.2577902556        0.0543650948      -23.8013989138
 H       -15.6619081564        0.7149960034      -22.7284034288
 H       -14.9250939571       -0.7609153725      -22.8036764565
 H       -14.7486689961        0.2816428753      -24.2005062759
 H       -13.6428491050        0.6339238168      -16.0299251620
 H       -12.5637277577        0.0127323950      -14.8492125374
 H       -12.3676538075       -0.4318797779      -16.5806557584
 H       -11.9778862707        3.7556156195      -15.1495616747
 H       -12.4420909332        2.4113157136      -14.1150297159
 H       -13.5016498730        2.9843215723      -15.5250676905
 H        -6.7693590895       -3.1379918520      -14.8960716739
 H        -8.4859759609       -2.9388332701      -14.4945992222
 H        -7.3425695942       -3.2663059262      -13.2197428715
 H        -8.0094752423       -1.6482643483      -11.7683014639
 H        -7.2032734761       -0.1428291947      -12.1149808963
 H        -6.3261991678       -1.5904241930      -11.8311213376
 H        -4.8141044904        0.3594757334      -18.3747949055
 H        -3.4380432788        0.9302852695      -19.4259867496
 H        -4.8581236822        1.8710014097      -19.2596771431
 H        -2.1037275004        0.2269457147      -16.7949220877
 H        -1.3938018227        1.7500772398      -16.4744001718
 H        -1.5092810137        1.3536995574      -18.0739655445
 H        -7.9729197572        7.6316263365      -13.9272985427
 H        -8.4153556327        6.3927196902      -14.8970925833
 H        -7.9289077851        7.8941541628      -15.7195390938
 H        -4.2390332918        7.4344507178      -14.9906883388
 H        -5.3744532090        8.6023110773      -14.3217692809
 H        -5.3148409675        8.2746943214      -16.0720255648
 H        -5.3846882920        5.6042551181       -6.6635603968
 H        -5.8315373341        4.7689587421       -8.0828135457
 H        -6.6055975163        6.3690621818       -7.5163093014
 H        -3.1126453220        8.0313618589       -8.5365622555
 H        -3.6454640316        7.6767803244       -6.9486940915
 H        -4.6768197480        8.6267110748       -8.1563610553
 H         0.8214566174        2.4985832646       -5.4850562063
 H         1.6874687942        4.0460379508       -5.8262495473
 H         2.4350832925        2.4908947589       -6.1986592781
 H         2.8675327877        4.5952008939       -7.8857189237
 H         2.3530618107        3.7469705840       -9.3105800022
 H         3.2458934514        2.9136525257       -8.0997981020
 H         2.0464938221       -3.3106657881      -10.6793558567
 H         2.1055262204       -4.0745531749       -9.0211823581
 H         2.4509776898       -2.5426183963       -9.1981156942
 H         0.0290989091       -2.5369772809      -11.7542669323
 H         0.6247357983       -0.8783156979      -10.9383218917
 H        -0.9457383576       -1.3286384043      -10.8208792938
 H        -2.9124313087       -8.0610563923       -4.4442448235
 H        -2.3934318076       -8.9756741402       -5.8804241967
 H        -2.9797972327       -7.3181775142       -6.1450479803
 H        -1.5182160751       -5.1365350863       -5.0191457087
 H        -0.2908556333       -5.6992943462       -4.0296362693
 H        -2.0170208297       -6.2972896643       -3.6882320930
 H         2.2183451010      -12.4667639511       -3.5106420575
 H         1.0379361990      -13.7502941571       -3.6241119261
 H         2.1409268518      -13.5567471524       -2.1516534856
 H        -0.9784264198      -13.9071081315       -2.5438013975
 H        -1.6017443861      -12.6337346696       -1.3412060778
 H        -0.2473380924      -13.7215871739       -1.0687840251
 H         3.3838350205       -9.0195776501        3.9338459815
 H         3.3888003394      -10.1446104114        2.6892121628
 H         1.9506184353       -9.8991110785        3.5441260359
 H         2.6144392015       -6.3729742275        3.4166631074
 H         1.1034152431       -7.1306791836        3.3082610056
 H         1.7890807339       -6.1088492949        1.9684099321
 H         7.3655125925       -6.0120539870       -3.2861412292
 H         7.3375110054       -7.6925451265       -2.9070326889
 H         7.3010739630       -6.3908612344       -1.5423978957
 H         4.1595037994       -4.9840711447       -1.7495447403
 H         4.1638609491       -4.9492570864       -3.5305106796
 H         5.5777996233       -4.3804117872       -2.7425905378
 Na        2.3985581048       -8.6789840140       -2.5819396283
 Na       -7.3561348096        3.0650106269      -15.0941338188
