232

 C         5.4608688004       -6.5797626100       -5.2334979848
 C         4.8415569667       -7.1693877378       -4.0335871224
 O         3.9349367143       -8.0086452274       -4.1170523772
 C         5.4209991972       -6.5620110517       -2.7238013678
 C         4.8446232926       -7.2818099082       -1.3908813193
 O         4.2748000775       -8.3372356167       -1.3733695067
 C         5.2941989301       -6.4944187366       -0.1210026561
 C         4.1730089746       -6.4395958383        0.9037163782
 C         4.0276427792       -7.8323088711        1.4379292814
 O         4.9261757092       -8.5746987390        1.4630995367
 C         2.6567192074       -8.3201629556        1.9667474347
 C         1.7557310453       -8.7164304166        0.8310739062
 O         1.6638930852       -7.9978016499       -0.1613434798
 C         0.9993995405      -10.0424529354        0.9506295693
 C         0.1797824172      -10.4647601289       -0.2265807117
 C         1.0284509740      -11.0220165119       -1.4033686207
 O         2.1729431459      -10.5886348058       -1.6425744515
 C         0.4780776301      -12.1477038076       -2.3871587736
 C        -0.1469597740      -11.4897573768       -3.6962963646
 O        -1.3299336297      -11.5664088339       -3.8727248572
 C         0.9148142624      -10.7558075124       -4.7273304205
 C         0.3762787775       -9.4642636078       -5.5204859007
 C        -0.0513998022       -8.2080434706       -4.6935783555
 O         0.4369980014       -7.9414429327       -3.6099964660
 C        -1.0531711433       -7.1225974978       -5.3766069145
 C        -0.4175766795       -6.5571571935       -6.6580501417
 O         0.6767028221       -6.9930717126       -7.0327486714
 C        -1.2486955250       -5.4306792400       -7.4244930107
 C        -0.4158398051       -5.0073053755       -8.6446704518
 C        -0.7927615726       -3.7183284902       -9.3295161283
 O        -1.9298700650       -3.4737202374       -9.6244997882
 C         0.3479297296       -2.6092010769       -9.5799935874
 C         0.3238658438       -1.6829001552       -8.3261029986
 O         0.9783080110       -1.9364626329       -7.3598859122
 C        -0.5683940982       -0.3894855033       -8.3055580610
 C         0.2082737136        0.6919842025       -7.4833394767
 C         0.5203681655        1.9086568624       -8.3843894738
 O         0.4580822847        1.9828558080       -9.6062326576
 C         1.0626980268        3.1985743209       -7.7178154620
 C         0.0461426823        4.4247887491       -7.9090867103
 O         0.4171510130        5.5645857178       -7.8360406729
 C        -1.4626009205        4.1390051272       -8.2134127993
 C        -2.3522010620        5.3887443609       -8.0907755086
 C        -3.7444226351        5.2870196690       -8.7434257405
 O        -3.9698642261        4.3628961571       -9.5837734789
 C        -4.7804615408        6.3858310568       -8.5352594588
 C        -5.5352384090        6.7510640165       -9.8640582150
 O        -6.5364976354        7.3847049400       -9.5932374387
 C        -5.2764751797        6.1612821584      -11.2575027386
 C        -6.1681217597        6.7132770254      -12.3000461321
 C        -6.1621545793        5.8991114095      -13.6635073835
 O        -6.3820336235        4.7210740861      -13.6367822178
 C        -6.2497417698        6.6948952515      -14.9986034383
 C        -6.0113939375        5.5628430879      -16.0632760491
 O        -6.8812656840        4.7608816848      -16.4114179922
 C        -4.5532971697        5.4572426501      -16.6467750115
 C        -4.5310130605        4.2889866977      -17.7057288816
 C        -3.3685227367        3.3608295155      -17.5110221453
 O        -2.2631385340        3.8413058484      -17.4057397165
 C        -3.4616329952        1.7493106652      -17.2948674940
 C        -4.4069933588        1.5854521896      -16.0772694135
 O        -5.5559185830        1.9792323727      -16.2733602575
 C        -3.8735927791        0.9373052299      -14.8038431375
 C        -4.9385856312        0.2773365367      -13.8343714480
 C        -5.7643463862       -0.9149477576      -14.5311767970
 O        -5.5773378498       -1.2774807266      -15.6816539763
 C        -7.1501568880       -1.2798421962      -13.9057966769
 C        -8.1050410644       -0.2099931149      -14.5651122171
 O        -8.0211174381        0.9507992427      -14.0796364826
 C        -9.0882182867       -0.6793917966      -15.6739334925
 C        -9.4092286343        0.5577757447      -16.6322961785
 C       -10.4057803305        1.6574864656      -16.0481640769
 O        -9.8676736898        2.6256555675      -15.5897524087
 C       -11.9928449303        1.7487872194      -16.2871186028
 C       -12.2072607548        2.3460676590      -17.7426801759
 O       -11.2480711622        2.8837920271      -18.2565882718
 C       -13.4099544931        1.9615487614      -18.5322238050
 C       -12.7650615619        1.2838824477      -19.8507821813
 C       -13.8484629990        0.8908983522      -20.8392215317
 O       -14.9521222888        0.6209398411      -20.3494216550
 C       -13.6969072937        0.8851495054      -22.3597669509
 C       -13.6273425741        2.4157285623      -22.9342224698
 O       -13.6509142694        3.3928984536      -22.2259588086
 C       -13.7670188228        2.6065336913      -24.4175136556
 C       -12.2572625473        0.3233338750      -22.7274018166
 C       -14.9236053482        0.2660955815      -23.0406207865
 C       -12.6572768359        0.4143073215      -16.0017848227
 C       -12.5136990529        2.7959677706      -15.2552645494
 C        -7.6379221281       -2.7039950928      -14.2481035377
 C        -7.0138004611       -0.9674863365      -12.3619385766
 C        -4.1510032319        1.1748845571      -18.4973553090
 C        -2.0608553781        1.2114106447      -17.1592687643
 C        -7.7746975019        7.0562130693      -14.9135850321
 C        -5.2651316095        7.9284561102      -15.0879400221
 C        -5.8726383502        5.9014353281       -7.5413764842
 C        -4.1229406743        7.6841847974       -8.0048168730
 C         1.3642447125        3.1420032471       -6.1420177393
 C         2.3200178463        3.5728932779       -8.5114311560
 C         1.7203968776       -3.2913538954       -9.6934131758
 C         0.0685472962       -1.7897259661      -10.8435910660
 C        -2.3124145076       -7.9768789937       -5.6196487435
 C        -1.3328737621       -5.9438843894       -4.2839922821
 C         1.6312389868      -13.1518281657       -2.6689272016
 C        -0.7199022940      -12.9186593009       -1.7258280673
 C         2.7699261864       -9.4015349130        3.0549790837
 C         1.9897883767       -7.0670864995        2.6735789175
 C         6.9086049644       -6.6299699457       -2.6545086496
 C         4.8788655443       -5.0790053003       -2.7787654502
 H         4.8356166683       -6.8863869072       -5.9987154390
 H         6.5194474045       -6.7813341392       -5.5775192528
 H         5.4594940499       -5.4893533616       -5.1580737548
 H         5.7732698307       -5.5139794224       -0.4352308780
 H         6.1906470768       -7.0493801268        0.2971644157
 H         3.3625392087       -5.8964527050        0.3347468263
 H         4.4977481320       -5.7376152775        1.7617422744
 H         0.3711357754      -10.0160815173        1.7801292487
 H         1.7881516897      -10.6927938157        1.2155100675
 H        -0.2032630060       -9.5523701385       -0.6488806337
 H        -0.6186844329      -11.0712449172        0.1474768833
 H         1.2273170655      -11.5062168480       -5.5440964113
 H         1.7724806690      -10.5603175031       -4.1195202930
 H        -0.4851910288       -9.8116583067       -6.1406880692
 H         1.1151979575       -8.9806983863       -6.1877798566
 H        -1.6446700846       -4.6960498573       -6.7289626897
 H        -2.2692271300       -5.7425834239       -7.7664742074
 H        -0.5778672235       -5.8258894337       -9.3504632761
 H         0.6478328604       -5.0354204494       -8.3406604373
 H        -1.4233694018       -0.6533904583       -7.7080989324
 H        -0.7456963201       -0.0212827465       -9.3646046168
 H         1.1193810417        0.2967935139       -7.0210853965
 H        -0.3581983995        1.0387792144       -6.6552666888
 H        -1.8884734432        3.4448145680       -7.5754752766
 H        -1.5100779485        3.7293405080       -9.2194778557
 H        -1.8343059212        6.1709147736       -8.6799523419
 H        -2.4268158095        5.5500051135       -7.0046556680
 H        -5.3887697123        5.0612852077      -11.2438852434
 H        -4.2721719545        6.3086730149      -11.4800318935
 H        -5.7812448685        7.7285527282      -12.6146390138
 H        -7.2175813688        6.7725825253      -11.9555434153
 H        -3.8031841244        5.3718247721      -15.8611629239
 H        -4.2791330728        6.3790899832      -17.2352269171
 H        -4.4306088416        4.7035516397      -18.6600306751
 H        -5.5087801697        3.8154489008      -17.6818828630
 H        -3.1401564905        1.4611404625      -14.1805149474
 H        -3.2309531780        0.1321881524      -15.1960926741
 H        -5.7118735342        1.0090306892      -13.5264905652
 H        -4.4282041243       -0.0170153367      -12.9376896249
 H        -9.9637617520       -1.1714402057      -15.2270873762
 H        -8.6910574455       -1.4668703402      -16.2859427144
 H        -9.6327157653        0.2051273495      -17.6501601428
 H        -8.4673142317        1.0525023374      -16.7290327728
 H       -14.0682324281        2.7914241927      -18.7482626333
 H       -13.9754255260        1.2186037551      -18.0668320688
 H       -12.2609882393        0.3375394382      -19.4844932267
 H       -12.0164823871        1.8337475394      -20.3574594648
 H       -13.3560346992        1.7644150738      -24.9656561206
 H       -13.3381155120        3.5984855002      -24.7296508575
 H       -14.7877653279        2.5901914388      -24.5043496613
 H       -11.9541604541       -0.5530108310      -22.2100004295
 H       -11.5482795305        1.0863681794      -22.6960848735
 H       -12.2181066102        0.1511851751      -23.8375485803
 H       -15.8005656253        0.9217396149      -22.9940690767
 H       -15.2481735693       -0.6614651865      -22.4905405943
 H       -14.6440209694       -0.0256134240      -24.0314692937
 H       -13.7278452004        0.4191679049      -16.1925455142
 H       -12.5449646457        0.1502276462      -14.9460794382
 H       -12.2257562769       -0.3776403864      -16.5897770542
 H       -11.7941620622        3.6596258575      -15.0754193700
 H       -12.5449948295        2.3287666885      -14.2376174154
 H       -13.4191755647        3.2520020612      -15.5976139864
 H        -7.0181313754       -2.8502276198      -15.1755205145
 H        -8.6735293686       -2.9457257750      -14.4028613366
 H        -7.2332758690       -3.3270071519      -13.4392491198
 H        -7.9384923612       -1.0826427341      -11.8209613803
 H        -6.8223892738        0.1057430207      -12.3180258705
 H        -6.3191800949       -1.5630076855      -11.7508137463
 H        -4.7879846735        0.2832934410      -18.1832647531
 H        -3.4917572600        1.0214182611      -19.2943564899
 H        -4.9497816134        1.9192912256      -18.9250987713
 H        -1.9869877265        0.1381022738      -17.3716886369
 H        -1.6221311234        1.3876525314      -16.1891847851
 H        -1.4888797696        1.8590836020      -17.8515675512
 H        -8.0965256124        7.6218591309      -14.0350647575
 H        -8.3853248496        6.1785493216      -14.6809667661
 H        -8.1694140786        7.5302686698      -15.8323845554
 H        -4.2237212789        7.8824926977      -14.8598349155
 H        -5.7381222923        8.5948378800      -14.3489392592
 H        -5.3861241151        8.4442417979      -16.0021597160
 H        -5.5767227239        5.5132710606       -6.5530553083
 H        -6.4188740646        5.0950315395       -8.0042844065
 H        -6.4227432012        6.7429888453       -7.2551230941
 H        -3.3314410387        8.0116822089       -8.6542580741
 H        -3.6704177310        7.5365004378       -7.0627576150
 H        -4.8161181819        8.5440234898       -7.9691560261
 H         0.5618595578        2.9824974950       -5.3967979325
 H         1.9338557280        4.1003866665       -5.9061726066
 H         2.1024558563        2.2399587441       -5.9654617240
 H         2.5478612086        4.6588807809       -8.5167661767
 H         2.2622044766        3.1146311768       -9.5749154878
 H         3.1320806249        3.0576059482       -7.9817574517
 H         2.0583723746       -3.6904026444      -10.6335314287
 H         1.9835201267       -3.9359759345       -8.8603408310
 H         2.4914127311       -2.5533964502       -9.3660200020
 H         0.3361272420       -2.4791228450      -11.6800505614
 H         0.7117394771       -0.8743543536      -10.8506580644
 H        -0.9182106831       -1.3198287144      -10.9919803217
 H        -2.6997242809       -8.3480767459       -4.7351414217
 H        -2.0120219952       -8.8713006056       -6.2350138094
 H        -2.9677982776       -7.3975377407       -6.2111618493
 H        -1.6290758002       -4.9296858173       -4.6727417675
 H        -0.3488146221       -5.7468077499       -3.9047169698
 H        -2.0186445668       -6.3978559217       -3.6261070455
 H         2.4393519173      -12.6484927132       -3.2455120827
 H         1.3041572486      -14.0174881923       -3.3082860538
 H         2.0671428146      -13.4026989906       -1.7451303030
 H        -1.2734728803      -13.3547560798       -2.5404950068
 H        -1.4367998114      -12.2913006974       -1.1607290914
 H        -0.4415454198      -13.8197242299       -1.2123898425
 H         3.2927839043       -9.1402675445        3.9930731646
 H         3.4270309947      -10.2992773080        2.7928549762
 H         1.8709599606       -9.9917348421        3.3299631268
 H         2.6359154665       -6.8188415113        3.5101873088
 H         1.0781120563       -7.2149397314        3.2082566123
 H         2.0410386831       -6.1652948620        2.1219618220
 H         7.3287180803       -6.0359005560       -3.4830748125
 H         7.1539154786       -7.6522709037       -2.8601415513
 H         7.2042002460       -6.2639418279       -1.6871442415
 H         4.1711497995       -4.8135395168       -1.9965508957
 H         4.3317892020       -5.0592383769       -3.7031944684
 H         5.7009735953       -4.3506972417       -2.9403693587
 Na        2.4870417084       -8.4801830113       -2.6207008143
 Na       -7.3483723181        2.9970765531      -15.0630979823
