232

 C         5.5953756667       -6.8186236022       -5.3832924976
 C         4.8196691145       -7.2189098976       -4.1240143404
 O         3.9606176175       -8.0638905353       -4.1300146393
 C         5.3210893970       -6.5406042224       -2.7953745140
 C         4.9195991466       -7.2466500462       -1.4159936978
 O         4.4198957814       -8.3377065420       -1.3238104807
 C         5.4215577419       -6.5619661838       -0.1816193468
 C         4.3315127300       -6.5551912849        0.8890193039
 C         4.1126297293       -7.9147086281        1.5056919505
 O         5.0248826665       -8.7825985379        1.5542535477
 C         2.6646656242       -8.3206189904        2.0705298830
 C         1.7998665465       -8.6747156983        0.8135692213
 O         1.7941277477       -7.8921228564       -0.1476450492
 C         0.9227886073       -9.9860046024        0.8522544760
 C         0.0832136408      -10.2745833406       -0.4280576574
 C         0.9808694171      -10.9611667769       -1.4910898097
 O         2.1093853683      -10.5770857729       -1.6629619920
 C         0.5191241460      -12.1641851340       -2.3638659738
 C        -0.0532633205      -11.4538360173       -3.7466028037
 O        -1.2235706231      -11.4832746178       -3.8717259599
 C         0.8336010859      -10.7482298789       -4.6817005503
 C         0.2862520391       -9.5801002413       -5.5227853809
 C         0.0236810719       -8.2016580263       -4.7019125860
 O         0.5908316273       -7.9469600351       -3.6942771408
 C        -1.0555404887       -7.2200876108       -5.3021914241
 C        -0.4496951731       -6.5864780490       -6.5643016577
 O         0.5954049182       -7.0031906958       -7.0035957539
 C        -1.1565949207       -5.5778915034       -7.4339438834
 C        -0.3686113770       -5.0700537244       -8.7132060061
 C        -0.7195642407       -3.6462752204       -9.2709212395
 O        -1.8504123998       -3.3737025251       -9.5873079182
 C         0.4530676205       -2.5727132977       -9.6308335866
 C         0.3737465713       -1.7380915672       -8.3289578939
 O         1.0551577084       -2.0876096769       -7.3584221742
 C        -0.4185144862       -0.3629341341       -8.3802090041
 C         0.2568530274        0.7074671669       -7.4916629025
 C         0.4659877585        1.9697201828       -8.2944597452
 O         0.3216768706        1.8525697929       -9.5013298609
 C         1.0026518789        3.2713165666       -7.7839898839
 C         0.0230142450        4.4902840772       -8.0062868627
 O         0.4916784203        5.6420107810       -7.8622539757
 C        -1.4407692286        4.2797597555       -8.4465561511
 C        -2.3901924206        5.4485364769       -8.0869671927
 C        -3.7495620800        5.2677310574       -8.8322028604
 O        -3.8928775683        4.3128369758       -9.5785862913
 C        -4.8620185378        6.3232367961       -8.4956067083
 C        -5.6690522214        6.7128502899       -9.7961045548
 O        -6.4425245044        7.6540587176       -9.8607516517
 C        -5.2575728238        6.0291109768      -11.1135253168
 C        -6.1638561483        6.6349382868      -12.1986171764
 C        -6.2608879205        5.8502181096      -13.4827306734
 O        -6.4381605889        4.6221213643      -13.3615409349
 C        -6.3723457079        6.6408021704      -14.9281021774
 C        -6.0077237571        5.6183013067      -16.0940556045
 O        -6.9154250228        4.8174295967      -16.2325021392
 C        -4.6864873120        5.3919031009      -16.7876223849
 C        -4.5856400471        4.1721831588      -17.7662816770
 C        -3.2807038057        3.4256590401      -17.4574799861
 O        -2.1731571368        3.8570820254      -17.4634870586
 C        -3.4747980978        1.8202880891      -17.2632088001
 C        -4.4155596569        1.5691276643      -15.9599848843
 O        -5.6294191706        1.9299358751      -16.0307570115
 C        -3.8503139955        0.9283352666      -14.7883434259
 C        -4.9226888583        0.2407078023      -14.0059842172
 C        -5.7849553782       -0.8015397799      -14.6667459316
 O        -5.5609198931       -1.3858053432      -15.6929416080
 C        -7.0676187407       -1.1567316366      -13.8852579219
 C        -8.1579057854       -0.1915573057      -14.4170697764
 O        -8.1766481245        0.9032525826      -13.9073998489
 C        -9.0228745640       -0.4849137261      -15.5665312886
 C        -9.4839233364        0.6535867616      -16.6300772431
 C       -10.3420871109        1.7669682671      -16.0608075823
 O        -9.8384828285        2.7380797795      -15.5872049112
 C       -11.9245671508        1.7522519073      -16.2696036982
 C       -12.1388471800        2.2190446843      -17.7537200763
 O       -11.3374602900        2.9803970253      -18.3040658070
 C       -13.3698148419        1.7740223271      -18.5935077297
 C       -12.7462597154        1.3182880956      -19.9448504422
 C       -13.9337852115        0.9986544254      -20.8090226087
 O       -14.9556536220        0.6114263599      -20.3427105389
 C       -13.6460255894        1.0426363024      -22.4071940157
 C       -13.6410154200        2.5199311660      -22.9233567888
 O       -13.5205659204        3.3836648110      -22.1129140042
 C       -13.7083733303        2.7594849640      -24.4467809606
 C       -12.3750501356        0.2712756370      -22.7129605248
 C       -14.8915053572        0.1917995992      -22.9695385113
 C       -12.6310711437        0.3730008496      -16.1049347189
 C       -12.5488852122        2.8604559025      -15.3568098723
 C        -7.6267747134       -2.6727262917      -14.2043008099
 C        -7.0666596765       -0.9082339186      -12.3309370471
 C        -4.1926623446        1.0969700658      -18.4543904638
 C        -2.0724713991        1.1299892109      -17.1484754555
 C        -7.8323611080        7.0285897795      -15.1339820285
 C        -5.4582634285        7.8653567174      -15.1203688348
 C        -5.9144340970        5.9804520650       -7.3305819909
 C        -4.2229554914        7.6287321638       -8.0076754255
 C         1.2219460073        3.1733562938       -6.2270789142
 C         2.2789919833        3.6041981157       -8.6221718951
 C         1.7611734568       -3.2411266146       -9.8265223884
 C         0.1110869951       -1.8453759090      -10.9146292611
 C        -2.3457849689       -7.8652257247       -5.8319029173
 C        -1.3466948552       -6.1254814677       -4.2184790342
 C         1.6681581003      -13.1437121250       -2.5329095948
 C        -0.7102476182      -12.8300525606       -1.6613101537
 C         2.9089392742       -9.4500229778        3.0645079883
 C         1.8383623066       -7.1800445475        2.7910095928
 C         6.8839981077       -6.5665639311       -2.7761690346
 C         4.8884680587       -4.9822436222       -2.7386424165
 H         5.0918846460       -7.3391082675       -6.2120848559
 H         6.6202076708       -7.1224809486       -5.4507914303
 H         5.6230563421       -5.7812718449       -5.5702502582
 H         5.8710123262       -5.6005380635       -0.4073731844
 H         6.3086260193       -7.1195737449        0.2346141799
 H         3.4965058302       -6.0833602599        0.4779543078
 H         4.7443037228       -5.8588334475        1.6265338121
 H         0.1636186061       -9.7742226528        1.6263482092
 H         1.5280332459      -10.7912678906        1.1384111446
 H        -0.4691202677       -9.3968133395       -0.7071725085
 H        -0.6038755237      -11.0303760949       -0.0536717549
 H         1.0104563342      -11.5073583416       -5.4530792221
 H         1.7848958051      -10.4970400977       -4.2437503430
 H        -0.6332089501       -9.8320176867       -6.0429374134
 H         1.0672736359       -9.4036194565       -6.2644043000
 H        -1.5357074442       -4.7807990613       -6.8471306927
 H        -2.2295323478       -5.9365752908       -7.6612950540
 H        -0.3875856678       -5.8030195036       -9.5070747866
 H         0.7151519768       -4.9761659652       -8.3108934657
 H        -1.3878271542       -0.4991459729       -7.9932869932
 H        -0.3702431788       -0.0769084652       -9.3921859496
 H         1.2647514861        0.2316328311       -7.1735065476
 H        -0.2076673944        0.8467172524       -6.4787463144
 H        -1.8809622864        3.3004055980       -8.0097358817
 H        -1.4654515650        4.1623666090       -9.4658111503
 H        -1.8869767488        6.2876012751       -8.4961194967
 H        -2.5653554466        5.4771826497       -6.9988849623
 H        -5.4075451453        5.0139976225      -11.1442909784
 H        -4.2041830224        6.2305636501      -11.2276330555
 H        -5.8902342438        7.5835192924      -12.5198633067
 H        -7.2257384170        6.7117395096      -11.7880123698
 H        -4.1474011527        5.0816466298      -15.8652826501
 H        -4.1079179814        6.1386718474      -17.1597044121
 H        -4.4292939435        4.5785938427      -18.7377447452
 H        -5.5070930327        3.5544333877      -17.8476128472
 H        -3.3712203835        1.6418810385      -13.9908368870
 H        -3.0010949854        0.3113853579      -15.0644386015
 H        -5.6009563856        1.0145953003      -13.5844241218
 H        -4.4921004762       -0.2068877467      -13.0977995174
 H       -10.0316371756       -0.8760584928      -15.1290413248
 H        -8.7981898822       -1.3791874818      -16.1520203874
 H        -9.9116811489        0.0692344379      -17.4318508034
 H        -8.6271739228        1.1161076128      -17.0140877784
 H       -13.8025252338        2.7151844486      -18.7995039845
 H       -14.0898438973        1.0309372897      -18.3190398535
 H       -12.1833175763        0.3662399094      -19.8160429492
 H       -12.0218681877        2.0183783905      -20.4073737966
 H       -12.8730585476        2.1817993202      -24.8089450157
 H       -13.4448436367        3.8015343814      -24.5543218538
 H       -14.6534182798        2.5001310926      -24.9492367045
 H       -12.3833824210       -0.6981985511      -22.1578049505
 H       -11.4424696295        0.8430407996      -22.5324904977
 H       -12.2371986391        0.1601275204      -23.7963684688
 H       -15.8609127088        0.7343788168      -23.1407309358
 H       -15.1303237299       -0.5804967593      -22.1699713464
 H       -14.5619834293       -0.4081293511      -23.8011847859
 H       -13.7429835201        0.3817786014      -16.3236211032
 H       -12.4847429787       -0.0754034640      -15.1687980707
 H       -12.1990388263       -0.3278579165      -16.8656644282
 H       -11.9359279167        3.7005937441      -15.2426994493
 H       -12.6108223388        2.4855836828      -14.3352894546
 H       -13.5210497325        3.2237199908      -15.7954550862
 H        -7.5910860900       -2.6360858375      -15.2947591064
 H        -8.6901196697       -2.8393630159      -13.8508667228
 H        -7.0369610081       -3.5095667160      -13.7640864184
 H        -8.0348080888       -1.1310662059      -11.9584459158
 H        -6.7906723507        0.1131160274      -11.9761550620
 H        -6.4647446417       -1.7529990016      -11.8287431339
 H        -4.4085716444        0.0756383113      -18.1825530696
 H        -3.6080301812        1.2653166965      -19.4172749296
 H        -5.1983834351        1.5322132584      -18.6754782534
 H        -2.0547179066        0.1348311532      -17.6114618499
 H        -1.8126914837        1.0108039773      -16.0075385032
 H        -1.3017137870        1.8154458913      -17.5452930799
 H        -8.1423083350        7.7943857549      -14.5223013121
 H        -8.6060180960        6.3082135639      -14.8283021822
 H        -7.9549649219        7.2876867172      -16.1811545198
 H        -4.4369531352        7.7930594428      -14.8921349965
 H        -5.8709319785        8.6582297292      -14.5007700432
 H        -5.5704872698        8.2565098411      -16.1280234905
 H        -5.6228599108        5.5152705461       -6.3942019009
 H        -6.7077898274        5.3380308216       -7.7058896643
 H        -6.2322237495        6.9207720403       -6.9813247351
 H        -3.5480739199        8.1154861253       -8.7148586541
 H        -3.7366107552        7.4832139321       -7.0732445325
 H        -4.9828586488        8.3346246137       -7.8224259125
 H         0.2296025257        3.3668003116       -5.7495337232
 H         1.8983681680        3.9968066242       -5.7918907063
 H         1.4992622135        2.1935414347       -5.8719513849
 H         2.3898145779        4.7478794656       -8.7249600947
 H         2.2443651958        3.0658996332       -9.6346116852
 H         3.1788951495        3.2313689076       -8.0415765626
 H         1.8236102558       -4.1294345287      -10.4396400812
 H         2.2682449263       -3.4244448583       -8.8526099976
 H         2.5456712886       -2.5088906271      -10.1792507791
 H         0.4615269252       -2.3934677242      -11.7252823796
 H         0.6131659410       -0.9020756491      -10.9394847161
 H        -0.9820583050       -1.5241244578      -11.0377190136
 H        -2.7177592361       -8.6450345526       -5.1852617455
 H        -2.0866838860       -8.3597897845       -6.7201749154
 H        -3.0676276092       -7.0667652936       -6.0400051379
 H        -1.9272576201       -5.3757617738       -4.7802766539
 H        -0.4523165546       -5.5763102588       -4.0024952493
 H        -2.0031374223       -6.5576542156       -3.4542632683
 H         2.5373563502      -12.6896747773       -2.9501128555
 H         1.4424473046      -13.9694291624       -3.1316058606
 H         1.9456694087      -13.3722715956       -1.4496234207
 H        -1.2328257472      -13.3872157742       -2.3927149826
 H        -1.4356920433      -12.1001604825       -1.4119313567
 H        -0.5274470691      -13.6241396517       -0.8851009403
 H         3.5732938553       -9.3108267804        3.9105712780
 H         3.3795521683      -10.2924490471        2.6548287279
 H         2.0039988849       -9.9741460953        3.3887502491
 H         2.3162426938       -6.7832965939        3.6890442050
 H         0.9043864358       -7.4791131637        3.2484168362
 H         1.7882642280       -6.3101821587        2.1793426812
 H         7.2886774044       -6.1637596526       -3.7325877364
 H         7.1069602806       -7.6130875288       -2.7756629824
 H         7.2161438323       -6.0224349930       -1.9370705891
 H         4.4714194953       -4.6510173313       -1.8294401242
 H         4.2226977509       -4.7465549590       -3.5855567030
 H         5.8402069782       -4.4748607270       -3.0077043514
 Na        2.4034074787       -8.3608860443       -2.5243508987
 Na       -7.4517208447        2.9013747648      -15.0441162580
