232

 C         5.7239138600       -7.4785660368       -5.3248128621
 C         4.9573704626       -7.3104331296       -3.9900676479
 O         3.8237906249       -7.7264728250       -3.9120862155
 C         5.6284180773       -6.5684870395       -2.8751264187
 C         5.2144203578       -7.3138628134       -1.5393382020
 O         4.5542711951       -8.3207407253       -1.5355676153
 C         5.6509389799       -6.6957875576       -0.1706192618
 C         4.5489093321       -6.7733041187        0.9080890494
 C         4.2700941169       -8.1339971905        1.6217897879
 O         5.2398630320       -8.8856288497        1.7929747931
 C         2.7346605284       -8.4722015068        2.1443210382
 C         1.8717185835       -8.6063212762        0.8596182335
 O         1.9671530716       -7.7575480001       -0.0246780718
 C         0.7319658085       -9.7370110409        0.6584391602
 C         0.1230775562       -9.9046340528       -0.6683410458
 C         0.9751032994      -10.8392490828       -1.5440858524
 O         2.1092329319      -10.4162416388       -1.8042075387
 C         0.3960382731      -12.0092090384       -2.2658779617
 C        -0.1943153136      -11.2740003037       -3.6839286793
 O        -1.3433535570      -11.3589399619       -3.7920509824
 C         0.8723576135      -10.6361795343       -4.5832352283
 C         0.2215770658       -9.7105833718       -5.6193604946
 C        -0.0185058542       -8.3785107030       -4.9128163215
 O         0.6012621270       -8.0366226142       -3.9637830120
 C        -1.1092292309       -7.3732609051       -5.5363922704
 C        -0.3486750808       -6.6387297662       -6.6768113684
 O         0.7492962968       -7.0948516134       -6.9575875243
 C        -0.9497917102       -5.3915366441       -7.3748418298
 C        -0.0010828535       -5.0221691235       -8.5191914641
 C        -0.4519818431       -3.7768326774       -9.1742569938
 O        -1.6316847517       -3.4953019436       -9.2182770460
 C         0.5214078497       -2.7209565459       -9.6848174944
 C         0.6668652114       -1.8239010858       -8.4084896896
 O         1.3363723529       -2.2153937356       -7.4643449384
 C        -0.2612136609       -0.5443630001       -8.2508587771
 C         0.3829019285        0.7425867213       -7.5887120534
 C         0.2561969212        2.0595901762       -8.5053664951
 O        -0.1449733130        2.1572975428       -9.6535464067
 C         0.9187088331        3.3599294338       -7.9247078434
 C         0.0049882200        4.5803121148       -8.2307195842
 O         0.4079882578        5.7491309082       -8.0306842349
 C        -1.4146653368        4.4442671645       -8.8589131619
 C        -2.3792886071        5.4151861147       -8.1565486046
 C        -3.7712323953        5.3775955144       -8.7415918452
 O        -4.1967205166        4.2816054604       -9.2160543476
 C        -4.7512684332        6.5322218029       -8.5287897682
 C        -5.6804294641        6.8380314940       -9.7831261318
 O        -6.2180558207        7.9229866169       -9.7575558247
 C        -5.8913629620        5.8379117012      -10.9957982433
 C        -6.1493407473        6.5496756684      -12.3212009005
 C        -6.6174719978        5.6881274666      -13.5484000829
 O        -6.8010014299        4.5120767927      -13.3090764743
 C        -6.5844259020        6.3604805108      -15.0484601525
 C        -6.2544157773        5.3292998160      -16.0878862778
 O        -7.0496971212        4.4001743431      -16.3258763929
 C        -4.7801379893        5.3306291793      -16.7507425104
 C        -4.6551198355        4.1717757143      -17.7092187284
 C        -3.3704746279        3.3189285827      -17.4689922286
 O        -2.3094763712        3.8110188577      -17.4301212021
 C        -3.5412043869        1.7780254429      -17.1420869277
 C        -4.4265783896        1.4515369002      -15.9497034549
 O        -5.5265987522        1.9769079741      -15.8066378102
 C        -3.8811760973        0.6052646787      -14.8080071677
 C        -4.8753312475        0.2878981961      -13.7800967715
 C        -5.8993216721       -0.7355235570      -14.3743603675
 O        -5.6177707470       -1.1898264541      -15.4504684930
 C        -7.2920331724       -1.1219666185      -13.6562150970
 C        -8.2348944238       -0.1517463798      -14.3401684890
 O        -8.3706706664        0.8775104219      -13.6563409760
 C        -9.1320679438       -0.4104447170      -15.5583292356
 C        -9.2956274473        0.9017832946      -16.4078040142
 C       -10.2818749459        2.0508260789      -15.8948658248
 O        -9.8893347396        3.0284415881      -15.3660101423
 C       -11.7723851918        1.8970927115      -16.2249433653
 C       -11.9517622740        2.3122126316      -17.8046047670
 O       -11.2587720655        3.1994384294      -18.2431115949
 C       -13.1555852253        1.6158497309      -18.6089401996
 C       -12.7907021439        1.4164398604      -20.0861603362
 C       -14.0588045662        0.9694846817      -20.9144564399
 O       -15.1192364391        0.6829476984      -20.4762713444
 C       -13.7773840605        1.0255865978      -22.4834066794
 C       -13.5607456923        2.4575366115      -22.9123875388
 O       -13.3440252072        3.2847662874      -22.0923104831
 C       -13.6200665587        2.9074138153      -24.4385932767
 C       -12.4722200177        0.2274678031      -22.9371557224
 C       -14.9515125009        0.4917043500      -23.3446939937
 C       -12.2520183576        0.4253538103      -15.9380319474
 C       -12.6538921567        2.8693128095      -15.4452649309
 C        -7.6765393263       -2.5843580309      -14.2813993959
 C        -7.0646752317       -1.0023369115      -12.1172652193
 C        -4.2494202166        1.2947595737      -18.3945867311
 C        -2.0762530131        1.1736909466      -17.1933485464
 C        -8.1421493617        6.8358751211      -15.2147594394
 C        -5.5494962631        7.5011134722      -15.1142558469
 C        -5.7643527598        5.8202903856       -7.5983674356
 C        -4.2104629064        7.7974045303       -7.8322689910
 C         0.9833344208        3.3628370893       -6.3206764247
 C         2.3800428846        3.5637868668       -8.4657144137
 C         1.8657428383       -3.3287347572      -10.0576373604
 C         0.0652958975       -1.9204905255      -10.9132648910
 C        -2.3687229646       -8.1737142327       -5.9835284401
 C        -1.4083263792       -6.2997696134       -4.5126000869
 C         1.5951432349      -12.9768430778       -2.6967625435
 C        -0.7551940010      -12.7463748200       -1.5710765519
 C         2.7411196125       -9.8083873992        2.9165891349
 C         2.2687956822       -7.2553461179        2.9047153385
 C         7.1673955326       -6.2426568344       -3.0885189691
 C         4.8573245054       -5.2443583983       -3.0725291898
 H         5.0727341901       -7.7509951738       -6.1658639176
 H         6.5945378138       -8.2220188652       -5.3340247410
 H         6.1513889131       -6.5222093652       -5.6350020076
 H         6.0765427210       -5.6800616262       -0.2631348355
 H         6.5234179765       -7.2376168715        0.2541538244
 H         3.6817302605       -6.1741552762        0.5185461997
 H         4.9782167091       -5.9999972954        1.6759822090
 H         0.0277572918       -9.3615377643        1.3816443635
 H         1.1132240819      -10.7027602744        0.8908147896
 H         0.0995972617       -8.9185031957       -1.1722767970
 H        -0.9314980720      -10.1893810637       -0.5371822816
 H         1.3335954332      -11.5186095611       -5.1752174351
 H         1.6165527508      -10.1084382319       -3.9962136880
 H        -0.7545821097      -10.0553507495       -6.0336091574
 H         0.9702167192       -9.5817088539       -6.4282711936
 H        -1.1094574334       -4.5636117423       -6.7003854098
 H        -2.0380044385       -5.5747818565       -7.5800152940
 H         0.0994179526       -5.8040285480       -9.2318255785
 H         1.0036791312       -4.8985022447       -8.0657116865
 H        -1.0682387116       -0.8874064546       -7.5598317251
 H        -0.7126691489       -0.2876925048       -9.2988868281
 H         1.4120115978        0.6233576317       -7.3465184938
 H        -0.0004357994        0.9061575137       -6.6475556106
 H        -1.8724129806        3.4705168868       -8.7392147423
 H        -1.3651300671        4.5898220166       -9.9147546321
 H        -1.9373384086        6.4266587395       -8.1642473858
 H        -2.4430521131        5.0453059100       -7.0777272649
 H        -6.8024121044        5.3261634134      -10.5464884504
 H        -5.0331715725        5.1568888603      -11.0789947804
 H        -5.3924192708        7.3262478711      -12.5836828436
 H        -7.0632315285        7.1921865103      -12.1368415308
 H        -3.9475906639        5.2618937785      -15.9825460821
 H        -4.5501725557        6.3245527437      -17.2239911283
 H        -4.7816249945        4.4571215998      -18.7059846827
 H        -5.5373558392        3.5202825147      -17.4925208687
 H        -3.0647142687        1.1670707723      -14.3806779830
 H        -3.4424895654       -0.2846203715      -15.1598652683
 H        -5.4644142080        1.1906954648      -13.5355843395
 H        -4.5122759415       -0.0635868898      -12.8455240787
 H       -10.0532675574       -0.9140511066      -15.3095905049
 H        -8.7704956777       -1.1737020064      -16.1670665058
 H        -9.5522548771        0.5610889962      -17.4744061173
 H        -8.3057082403        1.3861264526      -16.4095283621
 H       -14.0060605264        2.3322582415      -18.6253534740
 H       -13.3660323888        0.6741784955      -18.1604340992
 H       -11.8932710978        0.7933382481      -20.3034149057
 H       -12.5062185512        2.3931351621      -20.3655052313
 H       -12.6024295247        3.2692439146      -24.6119975421
 H       -14.3698890186        3.6932812566      -24.6854954595
 H       -13.8140975909        2.0576370706      -25.0295704235
 H       -12.4727543767       -0.7917921111      -22.6804089285
 H       -11.5875399312        0.6244864060      -22.5683958308
 H       -12.3784920434        0.4233942473      -24.0214049241
 H       -15.8751074063        0.9335286477      -23.0114177491
 H       -15.0475992417       -0.6023376336      -23.2228074516
 H       -14.8170535058        0.6292463627      -24.3455355224
 H       -13.3082828692        0.2840361482      -16.2474035010
 H       -12.1547975318        0.1903195173      -14.8983491990
 H       -11.7518937699       -0.3615463110      -16.4868930244
 H       -12.5361417951        3.9173265025      -15.7414813343
 H       -12.4564776544        2.7913515808      -14.3395057978
 H       -13.6817426587        2.4890087221      -15.5877516345
 H        -7.7658625769       -2.5956394092      -15.3665288075
 H        -8.5691374002       -2.9990741429      -13.8778763253
 H        -6.8376636867       -3.2141069294      -14.0387525626
 H        -7.8423561736       -1.5194581655      -11.7013939014
 H        -7.0999693814        0.0017672694      -11.7370997603
 H        -6.1175235392       -1.5297116559      -11.8211283160
 H        -4.1338395496        0.2409488099      -18.5305749622
 H        -3.9074262876        1.7940751562      -19.2951597269
 H        -5.3410143549        1.4472331906      -18.2810962339
 H        -2.0384432159        0.2536795718      -16.7494111637
 H        -1.3842232902        1.9258287399      -16.7707307475
 H        -1.8372834662        0.9538657083      -18.1904474370
 H        -8.5434945721        7.3283159350      -14.3583675400
 H        -8.8941152232        6.0032446224      -15.3858768010
 H        -8.2762425371        7.4307380455      -16.1483484260
 H        -4.5702650614        7.1620046638      -14.7665025488
 H        -5.8409230676        8.4391129667      -14.5635816660
 H        -5.3878517520        7.7738960379      -16.1681901882
 H        -5.5201077178        5.7613703573       -6.5078779893
 H        -5.9440388787        4.7808154381       -7.9654561575
 H        -6.6815903108        6.3391659289       -7.5962099818
 H        -3.3792141444        8.2931901094       -8.3869919404
 H        -3.9358089887        7.5302066551       -6.8198355093
 H        -5.0028572541        8.5617280562       -7.6215059238
 H         0.0592675130        2.9415122121       -5.9747019559
 H         0.8788459096        4.4440610119       -5.9711063054
 H         1.9058822508        2.9420386074       -5.9130621544
 H         2.8633809183        4.2798078101       -7.8765340580
 H         2.3568953006        3.8873804132       -9.4922414045
 H         2.8870599323        2.6850296534       -8.4132278071
 H         1.8107457062       -4.3595440530      -10.1116378617
 H         2.5776492257       -3.2505960674       -9.2265081288
 H         2.4290586477       -2.9014970588      -10.9026436086
 H         0.0132338174       -2.6277692363      -11.7521315632
 H         0.7269310526       -1.1912739659      -11.3646345941
 H        -1.0561356840       -1.6150370225      -10.7563811477
 H        -2.7466246004       -8.8922816915       -5.2727944585
 H        -2.1745461374       -8.7622057327       -6.9215538866
 H        -3.1490850680       -7.4009902252       -6.0597063514
 H        -2.1765764825       -5.5492975700       -4.7925458860
 H        -0.4480788530       -5.8264977441       -4.2705303755
 H        -1.8597458916       -6.8384525378       -3.6798709619
 H         2.4248915788      -12.3769057328       -3.0851370981
 H         1.3325606729      -13.6323539986       -3.5288896503
 H         1.9493271620      -13.6111224366       -1.8403428498
 H        -0.5987288898      -13.6667828181       -1.0669911296
 H        -1.5810098475      -12.8964997580       -2.2781032016
 H        -1.1168277854      -12.0466358511       -0.7722603391
 H         3.3975467719       -9.8975671501        3.7886223189
 H         3.0871856794      -10.7233148171        2.4383023061
 H         1.7074100295      -10.1651361799        3.1529484816
 H         2.8311111923       -7.1019950775        3.8351157617
 H         1.2725095194       -7.3758548348        3.3697482629
 H         2.2684508715       -6.3140143904        2.3641712382
 H         7.2361741037       -5.4458619689       -3.8763205774
 H         7.7919567425       -7.1089387543       -3.2287283621
 H         7.3516697825       -5.7056809077       -2.1841601787
 H         5.2744310338       -4.5131129701       -2.4159333455
 H         3.8541382185       -5.5071845468       -2.7600823989
 H         4.8745772692       -4.8518748429       -4.1273387302
 Na        2.3613945687       -8.2375591107       -2.2683865755
 Na       -7.5947677949        2.9700916764      -14.7338883021
