232

 C       -19.1440722394      -10.9816044921        0.4940250539
 C       -18.2332995559      -11.8002089894       -0.3804813721
 O       -17.9212788864      -11.3080530953       -1.4576626545
 C       -17.5645524704      -13.2227576651        0.1420441431
 C       -16.0925330850      -13.1063359988       -0.3645937111
 O       -15.8845032759      -13.3712635385       -1.5335313222
 C       -14.9467517990      -12.7145236544        0.5752664705
 C       -13.7978622693      -12.0660995629       -0.2804167762
 C       -13.9815394790      -10.6620797066       -0.6621632659
 O       -14.7678810280       -9.9213987581       -0.1746037492
 C       -12.9230309828       -9.9897272242       -1.7801886502
 C       -13.4931200516      -10.5111884897       -3.1492349061
 O       -14.0324054205      -11.6234939251       -3.2180980181
 C       -13.2835180295       -9.8332492440       -4.4980146090
 C       -14.0937004593      -10.5713300567       -5.6405542576
 C       -15.5612464760       -9.9310084357       -5.7925915429
 O       -16.2764867122      -10.1635450938       -4.8643422657
 C       -16.0832996155       -9.0643174412       -7.0582897342
 C       -15.2868530374       -7.6525018197       -7.1912804906
 O       -14.4295209469       -7.3381444033       -6.3861801893
 C       -15.5670388258       -6.7562659417       -8.4447429566
 C       -14.4168254892       -5.8189847551       -8.7216280414
 C       -14.4654869702       -5.2230690814      -10.1907017755
 O       -15.5810035869       -5.0137350927      -10.6246508894
 C       -13.1759941396       -4.9447562820      -11.0094580762
 C       -12.1255060187       -4.0599804506      -10.0868905122
 O       -11.6457471727       -4.6618477587       -9.1525112009
 C       -11.5665518502       -2.6926690081      -10.5565442493
 C       -10.7862971141       -1.8865370034       -9.4435523179
 C       -10.1472514951       -0.5988964881       -9.9694542771
 O       -10.2176254655       -0.3450164679      -11.1571778198
 C        -9.4758279805        0.3446743134       -8.9081981340
 C        -7.9101873276        0.1823794607       -9.2685189200
 O        -7.2788563119       -0.6258311024       -8.6828631919
 C        -7.2910893231        1.0270915400      -10.3487808944
 C        -6.0993653665        0.3121133024      -10.8779032124
 C        -5.0039600887        1.3272543427      -10.9494560429
 O        -5.0573388951        2.3786872499      -10.3224127148
 C        -3.7730185983        1.1471815613      -11.9521737226
 C        -2.6815694730        0.4649209370      -10.9318192906
 O        -2.5981878426       -0.7254551882      -10.8615284354
 C        -1.8199326971        1.3607454772      -10.0645801091
 C        -0.6994392057        0.5647488170       -9.4225969189
 C         0.1399498443        1.2798835472       -8.3338198480
 O        -0.2650675306        2.2059839479       -7.6855938453
 C         1.5895168366        0.5038753140       -7.8631654513
 C         2.7955947249        1.4334213671       -8.3120918195
 O         3.5053165895        1.1552094998       -9.2062314870
 C         2.9177714698        2.7490469652       -7.4411614165
 C         4.1400413649        3.5270769904       -7.9671918428
 C         3.7734793285        4.4004134074       -9.1466440945
 O         2.6101278723        4.3284901785       -9.6090814819
 C         4.7891140110        5.2818710462       -9.9407928282
 C         4.9095783280        4.9802548722      -11.4104292002
 O         5.9366306853        4.4780380473      -11.8380842253
 C         3.6053264345        5.0788459929      -12.2528698378
 C         3.1733459338        6.2726647012      -13.1549571944
 C         3.9386904998        6.0548834108      -14.5695016097
 O         4.5032260367        5.0306404603      -14.8075025762
 C         3.9730380997        7.2123324842      -15.7124585388
 C         5.4635972661        7.2178449040      -16.2966156723
 O         5.5883573897        7.2792515099      -17.5304463012
 C         6.6669780661        7.5110596273      -15.4217746349
 C         8.0387706387        7.1392923416      -16.1143259701
 C         7.9781801964        5.4698763119      -16.1734526281
 O         7.5760827728        4.8541599173      -15.1841293403
 C         7.9606453966        4.6858272745      -17.4903972346
 C         9.2632765192        3.8536011905      -17.4434470172
 O         9.8820083758        4.0801289051      -16.4072969119
 C         9.6355874401        2.8985360622      -18.4959111243
 C        10.6688225114        1.9136209482      -18.0397889971
 C         9.9723882868        0.6125768306      -17.6275013037
 O         8.7839894845        0.5856623343      -17.7182261093
 C        10.8788028905       -0.5500875676      -17.2279260678
 C        10.6375000187       -0.3712454359      -15.6668096015
 O        11.3473918854        0.3305385339      -15.0247340134
 C         9.3623595548       -0.9983365010      -15.0468145376
 C         8.8540624291       -0.3390301893      -13.7190049906
 C         7.6931589489        0.5635770726      -13.8530508776
 O         7.7981122635        1.7423777031      -14.0760478509
 C         6.2501945218       -0.0246313580      -13.8744680914
 C         5.7002222231        0.5375483071      -15.4314104704
 O         5.5080928486        1.7172786944      -15.5968273449
 C         5.7593957793       -0.4348644334      -16.6063647533
 C         6.1394130485       -1.6046718491      -13.7385736550
 C         5.3865039317        0.6996531879      -12.8716033895
 C        10.3367929904       -1.9134903103      -17.8074651655
 C        12.4697294519       -0.3491176549      -17.5079433006
 C         6.5715044294        3.9301883829      -17.6007325276
 C         8.0552021603        5.5732997247      -18.8042413633
 C         2.9661099657        6.8177937940      -16.7410086879
 C         3.6048994614        8.5565053648      -15.1860163081
 C         4.2575517818        6.8029122491       -9.7916163930
 C         6.1990615670        5.2189316131       -9.1870691956
 C         1.6809448681        0.2451275667       -6.3836597534
 C         1.8993256347       -0.7579839758       -8.7090049029
 C        -4.1387213679        0.1233473864      -13.1914266186
 C        -3.3470046734        2.4587983039      -12.5969400950
 C        -9.9081559430        1.7733565880       -9.2378260132
 C        -9.6727396513       -0.0544954574       -7.3941307305
 C       -12.5871363422       -6.3812751172      -11.3294676092
 C       -13.5247237919       -4.2098727349      -12.3317299527
 C       -15.9283712339       -9.8789423741       -8.3426766738
 C       -17.5289989647       -8.7261311947       -6.8203259540
 C       -12.7977553796       -8.4788342935       -1.5440786711
 C       -11.5188688429      -10.6470754204       -1.6801007738
 C       -17.7238350991      -13.4654886928        1.6424978170
 C       -18.3347112415      -14.3316972539       -0.7108759463
 H       -18.4470072909      -10.4777370893        1.1728063216
 H       -19.8121948702      -11.6678398688        1.0393338761
 H       -19.7208784253      -10.2288109269       -0.0799175470
 H       -14.5854155205      -13.6692149200        1.0077705009
 H       -15.2281213590      -11.9979016229        1.3355959683
 H       -13.5002149647      -12.6146841670       -1.1266195015
 H       -12.8738206458      -12.0301630823        0.2928914079
 H       -12.1814970304       -9.8627727315       -4.5648420668
 H       -13.6323789500       -8.8313710606       -4.4655758687
 H       -14.1285767118      -11.7383114934       -5.4740573036
 H       -13.4833676958      -10.4173768690       -6.5403655574
 H       -16.4811190325       -6.2493132721       -8.1606360583
 H       -15.8895565659       -7.3515703504       -9.3449586891
 H       -13.4995540528       -6.3261851368       -8.4013678263
 H       -14.5572157561       -5.0346428233       -8.0302299319
 H       -12.2805282382       -1.9715188107      -10.9241401052
 H       -10.9282129436       -2.9981179944      -11.4245799785
 H       -10.1751011670       -2.6226220177       -8.9270118540
 H       -11.6113608082       -1.6720263532       -8.7310679558
 H        -6.9715046614        2.0216828401      -10.0180755746
 H        -8.1087174570        1.1475195327      -11.0571713351
 H        -6.3229833284       -0.0879384652      -11.9522425640
 H        -5.8639518194       -0.5234975290      -10.1302377062
 H        -2.3611599112        1.7874142204       -9.2874624523
 H        -1.4968205261        2.2606984892      -10.7502201460
 H        -0.0553089729        0.2456021513      -10.2075182112
 H        -0.9440424557       -0.3728918280       -8.8525929878
 H         2.8866744977        2.5769283269       -6.4027560952
 H         2.0098340040        3.2848725230       -7.4929933858
 H         5.0438679254        3.0170501925       -8.1949962660
 H         4.4767471119        4.1566843766       -7.0867113532
 H         2.7642543886        4.8287580556      -11.5286522074
 H         3.6895618254        4.2004927027      -12.9027302969
 H         3.4595705434        7.2053914382      -12.6799003211
 H         2.1415990373        6.2907511012      -13.3573103453
 H         6.6472915331        7.0208598917      -14.4212009025
 H         6.7564972996        8.5722270868      -15.1087956194
 H         8.7737230138        7.4683829036      -15.5062216152
 H         8.1424910680        7.5089154786      -17.1955205893
 H        10.0556325185        3.5336641311      -19.3526115142
 H         8.7765378160        2.3779562823      -18.8818764554
 H        11.2507894378        2.2218339186      -17.1817200787
 H        11.3019229978        1.7721338742      -18.9906852870
 H         9.5352080096       -2.0477194707      -14.9335757496
 H         8.4797413383       -0.9614150273      -15.7237432330
 H         9.7609478366        0.1841654908      -13.2516893301
 H         8.6212010593       -1.0025818315      -12.9518564625
 H         6.7968275576       -0.2105763810      -17.0964635747
 H         5.0166620901       -0.3477364730      -17.3036082707
 H         5.9114802662       -1.5054728000      -16.4381427787
 H         5.2056231943       -1.8367388999      -14.2582082490
 H         6.0237283287       -2.0207928671      -12.7324207766
 H         6.8901325587       -2.1292526488      -14.3393050076
 H         5.5548180084        0.5095628736      -11.8783794085
 H         4.3395320251        0.4313744182      -12.9649802619
 H         5.4163010739        1.7318705397      -12.8975441573
 H        10.5251254939       -1.9489391405      -18.9201068829
 H         9.2438328058       -1.8534456349      -17.8083864890
 H        10.8410533841       -2.7415845513      -17.3288875970
 H        12.7562005742       -0.0115961804      -18.5225509403
 H        13.0853208649       -1.2257333566      -17.2684316252
 H        12.6332060006        0.4943592792      -16.8476504293
 H         6.3492951361        3.2388693630      -16.7497081817
 H         6.4794356479        3.3627877665      -18.5679862836
 H         5.7539557683        4.7234635855      -17.7266437260
 H         8.5858267098        6.4782287996      -18.9025487464
 H         7.0181398961        6.0813296938      -19.0896321009
 H         8.4332450240        4.9318262757      -19.5674792661
 H         1.9529413066        6.8219495263      -16.3275327025
 H         3.2103236436        6.0020162907      -17.3008569721
 H         2.8999194738        7.6410950505      -17.4452740938
 H         3.7174532798        9.2461658316      -16.0153628508
 H         4.1687497219        8.9594476168      -14.4093722730
 H         2.6247037619        8.5576793175      -14.9157937151
 H         4.2105412622        7.1919092441       -8.7878811711
 H         3.1733550606        6.9472101092      -10.1506481454
 H         4.8165918048        7.5341824642      -10.3887283392
 H         6.8570182287        6.1196673181       -9.3007713238
 H         6.6959571143        4.1989090945       -9.3984237429
 H         5.8161641272        5.4313270289       -8.1584955857
 H         1.1158980482        1.0319112555       -5.9177424965
 H         2.7604386672        0.2558765253       -6.0279970035
 H         1.3232894817       -0.7751738978       -6.1110062424
 H         1.0098696236       -1.3457603486       -8.7231056202
 H         2.8223718173       -1.3545140514       -8.4887141587
 H         1.9290409276       -0.4048548298       -9.7244081105
 H        -4.3842798058       -0.9526090990      -12.9615860258
 H        -3.2540761054       -0.0316609743      -13.8137530655
 H        -5.0581152284        0.5688081883      -13.7092639625
 H        -2.4253972486        2.5051335251      -13.1679631593
 H        -3.2673483280        3.2712681288      -11.8430653818
 H        -4.1412693549        2.6069316094      -13.3200153298
 H       -11.0620244406        1.7718259452       -9.1418371047
 H        -9.7478881682        1.9460644624      -10.2984919667
 H        -9.4662791501        2.5038200836       -8.5255037489
 H       -10.7156177237       -0.0636257229       -7.1955194224
 H        -9.1570326546        0.5608162256       -6.6387820722
 H        -9.3271971395       -1.0885761722       -7.1631788198
 H       -12.0758030376       -6.3507558569      -12.3230504777
 H       -13.4937061461       -6.9309190805      -11.3991025904
 H       -11.9065538394       -6.7040460930      -10.5199370957
 H       -14.3409692199       -4.8086153250      -12.7364479565
 H       -12.8033708056       -4.2094748244      -13.1414007079
 H       -13.8333052016       -3.1340846914      -12.1939619309
 H       -14.8747877956      -10.2487963235       -8.5411772467
 H       -16.1766283699       -9.2577703666       -9.2405646465
 H       -16.7234529615      -10.5452083958       -8.1926999951
 H       -17.5845630037       -8.2679284132       -5.8631912118
 H       -18.1486447341       -9.5923734411       -6.7676187531
 H       -17.8595419908       -7.9733411978       -7.6166563630
 H       -13.7598327821       -8.0555789882       -1.4646303466
 H       -12.2034056397       -7.9301433896       -2.2962368078
 H       -12.2744595606       -8.3429970095       -0.5694201476
 H       -11.3239255658      -11.6606686240       -1.9855772119
 H       -11.1498722086      -10.6343512809       -0.6277906895
 H       -10.7951111837      -10.1951464283       -2.2302574664
 H       -17.3157281846      -12.6710459156        2.2313132775
 H       -17.0864557961      -14.3420179103        1.8794453291
 H       -18.8701187981      -13.4348278646        1.9462901857
 H       -19.2065522223      -13.9001403784       -1.2304686616
 H       -18.7612704058      -15.1356755024       -0.1195798141
 H       -17.7087599013      -14.7082861682       -1.4730252411
 Na      -16.1264930619      -11.4059042265       -2.7643605329
 Na        6.1545821726        3.4585208151      -13.9674732255
