232

 C         6.2315739874       -8.6800133060       -4.3903160347
 C         5.2394079304       -7.7192826575       -3.9260554927
 O         4.0555542065       -7.6840034139       -4.2559687456
 C         5.7034293006       -6.6528560153       -2.8088320095
 C         5.4299143937       -7.4282221094       -1.4331310048
 O         4.6486008007       -8.3487454156       -1.4685656506
 C         6.2404498533       -6.9872221469       -0.1882639098
 C         5.6175745009       -7.3020306797        1.1629921996
 C         4.7967890040       -8.6241791246        1.3288791154
 O         5.4081247432       -9.6677714777        1.3642660192
 C         3.2859575442       -8.5266280102        1.9044430103
 C         2.3133852678       -8.5415111969        0.6454106645
 O         2.4242072448       -7.7938243329       -0.2883152247
 C         0.9692200941       -9.4455027959        0.6186776888
 C         0.3656684916       -9.3842431665       -0.6911508301
 C         0.9854836700      -10.5161893453       -1.5625510016
 O         2.1416165056      -10.4161620340       -1.9000591385
 C         0.0683920304      -11.6435432663       -2.0590338259
 C        -0.2799380562      -11.1345796742       -3.5257700024
 O        -1.4393219587      -11.0460290917       -3.8539947967
 C         0.8224862214      -11.0684464931       -4.5692117905
 C         0.4924293096      -10.0060059920       -5.6141520444
 C         0.1924135064       -8.6693676903       -5.1136985192
 O         0.9689803987       -8.1873753364       -4.2680306693
 C        -0.9169758665       -7.6255758402       -5.7349718191
 C        -0.0581598340       -6.8329769413       -6.7238901062
 O         0.6998400524       -7.4565661941       -7.4388508987
 C        -0.2409942984       -5.3646634246       -6.8644260527
 C         0.6501974485       -4.8132801616       -7.9636153113
 C        -0.0633993442       -3.8308979623       -8.9020205558
 O        -1.2758329042       -3.8941076420       -9.0083820726
 C         0.8515664149       -2.8247529760       -9.7315086418
 C         1.3745140533       -1.4014732050       -9.1288351318
 O         2.5198254770       -1.2949639125       -8.8534326519
 C         0.2783595848       -0.2825253268       -8.9358066857
 C         0.7482271987        0.9476402117       -8.1367211386
 C         0.2145294718        2.2749939982       -8.7208791585
 O        -0.5903753908        2.3003408787       -9.6183712378
 C         0.6663122100        3.6022756578       -7.9974559685
 C        -0.2873621200        4.6451199059       -8.6777977616
 O         0.0804725528        5.4290719515       -9.4948952123
 C        -1.8470165598        4.5316977501       -8.2770643367
 C        -2.7176340670        5.7169893184       -8.8079861070
 C        -4.2404722159        5.4554209069       -9.0922974184
 O        -4.7072182336        4.5303604600       -9.7114903511
 C        -5.2094122965        6.5709434571       -8.5980931949
 C        -5.5016800601        7.3264724268      -10.0939805447
 O        -4.9094258087        8.3751805834      -10.3483491964
 C        -6.3253718559        6.5935620126      -11.0995505303
 C        -5.7097763295        6.6406092966      -12.4736136215
 C        -6.5341983068        5.7694152667      -13.4998820210
 O        -6.7367950326        4.5998902415      -13.1313508978
 C        -7.0191806768        6.3806796785      -14.8349625540
 C        -6.7350841376        5.2956033382      -15.9751534054
 O        -7.4004113069        4.3300354045      -16.1084979784
 C        -5.3775688171        5.5797872754      -16.8698010830
 C        -4.7838165090        4.3547823845      -17.4947441259
 C        -3.9861987656        3.3785755635      -16.6228191167
 O        -3.1818409314        3.7718864698      -15.8468149029
 C        -4.1193259854        1.8512049469      -16.7606718511
 C        -4.8587543550        1.3190393774      -15.5763621971
 O        -6.0527999530        1.5563257868      -15.4718612444
 C        -4.1444879228        0.6392571681      -14.3745887833
 C        -4.9751670464       -0.0616673040      -13.3367867962
 C        -5.9852045793       -1.0382256155      -14.0189851461
 O        -5.6648127710       -1.7400281647      -14.9936363498
 C        -7.5256850566       -1.3817232908      -13.2934023359
 C        -8.3895635002       -0.1787795872      -13.9411795846
 O        -8.3812045527        0.9248274878      -13.4281154196
 C        -9.1001959162       -0.5112855171      -15.2139056066
 C        -9.4185292720        0.7963922331      -16.0823136608
 C       -10.5203887694        1.9085096467      -15.7460830581
 O       -10.2639221859        2.9400770381      -15.0442056139
 C       -11.8448096893        1.8144203033      -16.4965021715
 C       -11.3641018051        1.8687234293      -18.0442445963
 O       -10.3482576327        2.4241056917      -18.3753479013
 C       -12.3047650045        1.2053887347      -18.9473533154
 C       -12.6958362247        2.0281352118      -20.1365509794
 C       -13.9055995851        1.5329750732      -20.8653760753
 O       -14.9295335995        1.3409301306      -20.2603435413
 C       -13.9139186063        1.5199287703      -22.3838961206
 C       -13.3631151164        2.8907676520      -23.0327939039
 O       -12.7227969012        3.6696910811      -22.3524262184
 C       -13.4049223303        3.0302789717      -24.5275723517
 C       -12.8665296752        0.4188283440      -22.8126688509
 C       -15.2507821479        1.1206767149      -22.9427389594
 C       -12.3851552864        0.4782966964      -16.1311133949
 C       -12.8421781792        3.0009371107      -16.3504333624
 C        -7.9442644791       -2.8227634338      -13.9374304318
 C        -7.6382933451       -1.4862158612      -11.7654051270
 C        -4.8387253697        1.3381187269      -18.0207051743
 C        -2.6128034031        1.3322939425      -16.9577565476
 C        -8.5545441691        6.4481653034      -14.4996312267
 C        -6.5660170062        7.8084623381      -15.2220217064
 C        -6.5433274580        5.9017492250       -8.2048804665
 C        -4.8646109060        7.5548484547       -7.4575334492
 C         0.4186498785        3.4055053082       -6.5128466378
 C         2.2239091494        3.6663918482       -8.1764750643
 C         2.0909906230       -3.5670626887      -10.3152268444
 C         0.0709249985       -2.3391580719      -11.0310733023
 C        -2.0206613615       -8.3808835168       -6.5973328318
 C        -1.6310113314       -6.7579918550       -4.6775274399
 C         0.9728356059      -12.9379260693       -2.2604586916
 C        -1.2058723123      -12.0236836227       -1.3105825687
 C         3.0286556886       -9.6161394751        2.8658218562
 C         2.9407802756       -7.2022305968        2.6783324739
 C         7.2107821918       -6.2714727950       -3.2165508088
 C         4.8704213415       -5.3236558065       -2.7460150967
 H         5.7592360628       -9.4201681059       -5.0005306848
 H         6.7823863160       -9.1763181043       -3.5716763935
 H         6.9895537701       -8.1509492042       -5.0883631000
 H         6.4571435092       -5.9581981149       -0.2977169088
 H         7.1124746323       -7.5723743545       -0.4105738703
 H         5.0348107374       -6.3492388439        1.3883760920
 H         6.4454591602       -7.3630284123        1.8861762611
 H         0.3831252461       -9.0006825671        1.4115767205
 H         1.2809523585      -10.4326102840        0.9672679009
 H         0.5021698971       -8.3528166370       -1.0871476831
 H        -0.7569082001       -9.4372079349       -0.5582007635
 H         0.7880619175      -12.0404044696       -5.0610433021
 H         1.8234380639      -11.0058919344       -3.9975985366
 H        -0.1456247115      -10.3784433002       -6.4002824246
 H         1.4269163290       -9.8453902129       -6.2290732325
 H         0.1338103355       -4.9588277014       -5.9619654233
 H        -1.3025912976       -5.1786770902       -7.1424787538
 H         1.1076536989       -5.6676572406       -8.3671004111
 H         1.4998875913       -4.3320242165       -7.4633033826
 H        -0.5801412161       -0.7805427610       -8.2906137033
 H        -0.2378302439       -0.1586437077       -9.8925535854
 H         1.7990450477        0.9241138271       -8.1968118852
 H         0.4162481660        0.8141167465       -7.1248675629
 H        -1.9350882651        4.4184651316       -7.2082110601
 H        -2.2760271386        3.6097284330       -8.6815040609
 H        -2.2533957785        6.0124177567       -9.7936918355
 H        -2.5800531489        6.6905863012       -8.3490043428
 H        -7.3771952434        7.0356431172      -11.1481966857
 H        -6.3709843648        5.4924390517      -10.7832493026
 H        -4.7300160718        6.1482857677      -12.3727858555
 H        -5.5376161421        7.6918687020      -12.8866864005
 H        -4.5807068624        5.9535522458      -16.1102942068
 H        -5.5093909166        6.3262820720      -17.6854109410
 H        -4.0653465807        4.6658008912      -18.2971490294
 H        -5.5642650185        3.7786409193      -17.9620908920
 H        -3.5868321832        1.3891624989      -13.9129116668
 H        -3.5343452885       -0.1299497717      -14.7811359938
 H        -5.6436751019        0.5226472835      -12.7375002610
 H        -4.3352516095       -0.6044396677      -12.6020598412
 H        -9.8886347280       -1.1739161989      -14.9134821494
 H        -8.4432219750       -1.0149037452      -15.8570780566
 H        -9.7287800889        0.3846297072      -17.0911645852
 H        -8.4596351240        1.4149370391      -16.2703778391
 H       -13.2759905819        0.8702661837      -18.5837394049
 H       -11.9372716611        0.1814759709      -19.2689576252
 H       -11.8521786447        2.1638128024      -20.7706275456
 H       -12.9608849704        3.0465035330      -19.7810375690
 H       -12.5305761468        2.3834796832      -24.8097588603
 H       -13.0658250117        4.0193624169      -24.8244409419
 H       -14.2729550693        2.5737135649      -24.9476753102
 H       -13.1443751064       -0.6572382099      -22.6754268191
 H       -11.8561012129        0.6563435537      -22.3447289728
 H       -12.6310100223        0.4116388740      -23.8824068862
 H       -16.0907105563        1.6099325127      -22.4625775772
 H       -15.3864811742        0.0679824290      -22.9071885525
 H       -15.4209060500        1.4582281580      -24.0276434070
 H       -13.4495190219        0.4294504187      -16.2355881243
 H       -12.3065540579        0.3215296752      -15.0211849893
 H       -11.9669729156       -0.4768848420      -16.5041845140
 H       -12.2640153545        3.9441167301      -16.5113564266
 H       -13.3377372717        2.9764868093      -15.4170897678
 H       -13.4890155867        2.9127652672      -17.1782727048
 H        -8.3482715743       -2.9016687358      -14.9314127535
 H        -8.6896185105       -3.3165969488      -13.2986089924
 H        -7.1950679665       -3.5743768868      -13.8930913216
 H        -8.5341336061       -2.2050318124      -11.5984031826
 H        -7.8755605282       -0.5409757424      -11.2998854328
 H        -6.7875279626       -2.0009192151      -11.4098248951
 H        -4.6663566788        0.2613965089      -18.1087246225
 H        -4.5695630869        1.8208096578      -18.8540070765
 H        -5.9022898056        1.4298674712      -17.9245218177
 H        -2.5640123817        0.2758729827      -16.5908619194
 H        -1.8895187532        1.8757827072      -16.4501933792
 H        -2.4192881101        1.4822905969      -18.0074367293
 H        -8.7155207118        6.7472116750      -13.4186533737
 H        -8.9361276611        5.5029940779      -14.7193613849
 H        -9.1325524958        7.2072485116      -15.0120574257
 H        -5.5081239569        7.8777341750      -14.8802894921
 H        -7.1305318089        8.5632011619      -14.7302715833
 H        -6.5262624493        7.9408872391      -16.3191680053
 H        -6.4956229422        5.7191561764       -7.1547485956
 H        -6.8397870989        4.9717645028       -8.6392895737
 H        -7.4091752793        6.6355691730       -8.3713824532
 H        -4.1311229110        8.2811748648       -7.7250952134
 H        -4.3909477068        6.9115236811       -6.7031872920
 H        -5.7453201766        8.0633556659       -7.1380057106
 H        -0.5373062738        3.0025130775       -6.3125899828
 H         0.5965101185        4.3191003919       -6.1106863479
 H         1.0908074096        2.6445794607       -6.1675339651
 H         2.7304947780        4.1044643761       -7.3834399773
 H         2.5083590708        4.1599229497       -9.1113434636
 H         2.5408089422        2.6485769898       -8.2515562336
 H         1.8598501452       -4.4067181443      -11.0454614901
 H         2.7719737165       -3.9301135747       -9.5380860686
 H         2.6943982641       -2.9179797211      -10.8826705767
 H        -0.0205148013       -3.2085606996      -11.7475034904
 H         0.5242425820       -1.4144598362      -11.4842468625
 H        -0.8108493017       -1.9576146821      -10.6401179717
 H        -2.8035643256       -8.9937523604       -6.1052489513
 H        -1.5481577441       -9.0985153366       -7.3570904700
 H        -2.4944023368       -7.6519491286       -7.2623791657
 H        -2.3141076080       -5.9789841979       -4.9442192055
 H        -0.8734025294       -6.1943446627       -4.1067578744
 H        -2.0268719203       -7.4558207384       -3.9027800052
 H         1.8193696223      -12.7312917921       -2.9259426551
 H         0.4101416624      -13.7892069578       -2.7085303183
 H         1.4372691434      -13.2928476461       -1.4006805333
 H        -2.0548245284      -11.4889978202       -1.7714357242
 H        -1.1694894639      -11.7518448847       -0.2561892021
 H        -1.3241190988      -13.0539462067       -1.3851067049
 H         3.8585243976       -9.7878752485        3.5549352963
 H         2.9216894615      -10.5917032718        2.3082960181
 H         2.1933548358       -9.6138556275        3.5293184451
 H         3.7075817363       -6.9091074327        3.3871370180
 H         2.0136009574       -7.2120268320        3.2598038024
 H         2.9702977308       -6.3195769209        1.9966269219
 H         7.1660211459       -6.0855258067       -4.2695475826
 H         7.8688523535       -7.1637111051       -3.0935439749
 H         7.5560495651       -5.3653103609       -2.6491483916
 H         5.0183864236       -4.8913852575       -1.7464187053
 H         3.7932956843       -5.4185231838       -2.9391098562
 H         5.2802364930       -4.6808930740       -3.4702810912
 Na        2.4939827126       -8.0976805836       -2.6178503261
 Na       -8.0893404680        3.0474250709      -14.3083703383
