232

 C         6.2816393255       -8.7403672428       -4.4638755957
 C         5.2711803884       -7.7085564054       -3.9664555006
 O         4.1358675481       -7.7583915468       -4.3376767788
 C         5.7138266362       -6.6289962058       -2.8734276985
 C         5.5187351989       -7.4319955326       -1.5257154452
 O         4.7044327476       -8.3073839905       -1.3902908590
 C         6.3727330978       -7.0394877554       -0.2753892765
 C         5.6730861598       -7.4086863528        1.0593819627
 C         4.8656621774       -8.6433660101        1.3528970892
 O         5.2960992283       -9.8064886631        1.3461736293
 C         3.3186956145       -8.5081535594        1.8717187978
 C         2.2867395013       -8.4434105427        0.7661794804
 O         2.5443581917       -7.6510076706       -0.1362347816
 C         0.9636459859       -9.3585064846        0.7331429039
 C         0.3107639742       -9.4502712995       -0.6446484894
 C         0.8988788801      -10.5668846971       -1.5372030769
 O         2.0638672530      -10.5290780712       -1.8816882804
 C         0.0429326405      -11.6675898467       -2.0801958709
 C        -0.3465510234      -11.2365010162       -3.5962913281
 O        -1.4593498379      -11.1409415093       -3.8780713181
 C         0.8661673009      -10.9644860933       -4.6179591749
 C         0.4840191963      -10.0341373272       -5.7287450605
 C         0.2636430581       -8.6517608889       -5.1972516692
 O         1.0297312073       -8.0960872702       -4.3632568100
 C        -0.8725054005       -7.7187227198       -5.7494809321
 C        -0.0258809229       -6.7947037437       -6.8224801679
 O         0.6619249422       -7.3832588536       -7.6066969643
 C        -0.1722935042       -5.2746755122       -6.8841172777
 C         0.8091378550       -4.6851501895       -7.9890579369
 C         0.0592721947       -3.7122480898       -8.8693187032
 O        -1.1704762607       -3.7640239416       -8.8982402779
 C         0.9364884543       -2.8233391647       -9.8418937660
 C         1.3581791056       -1.4391043778       -9.1793316506
 O         2.4828536554       -1.1111658627       -8.8130881919
 C         0.2179453511       -0.3978396133       -8.9960730306
 C         0.8211804965        0.8652210228       -8.2754825627
 C         0.2227864015        2.2350933192       -8.7956110540
 O        -0.6421941507        2.3324215124       -9.6594495833
 C         0.6937605065        3.4753439351       -7.9694865100
 C        -0.3237544686        4.6163445039       -8.6472674318
 O        -0.0356978659        5.3202664070       -9.6421701030
 C        -1.8802839072        4.5451392109       -8.2166526507
 C        -2.6845948740        5.6443345828       -8.8724471525
 C        -4.2430895861        5.4869155514       -8.9970969550
 O        -4.6561181786        4.5157113059       -9.6504848200
 C        -5.3555824107        6.6597780684       -8.6810030242
 C        -5.4382810294        7.3894263132      -10.0789324645
 O        -4.8332532379        8.3679413023      -10.3724111775
 C        -6.3538857056        6.6828957221      -11.1509953369
 C        -5.6147224829        6.7405159770      -12.5241277573
 C        -6.4394935233        5.8880411631      -13.5519107058
 O        -6.6702534979        4.6978708834      -13.2773789278
 C        -7.1485345933        6.4579763993      -14.7716521999
 C        -6.6868557798        5.4104747234      -15.8557520383
 O        -7.3495824353        4.3931279753      -15.9965322408
 C        -5.4755068023        5.5808312069      -16.7409153585
 C        -4.8895669395        4.3684428154      -17.5373622218
 C        -4.0119119434        3.3795104801      -16.5259904990
 O        -3.4526517888        3.7924762949      -15.5378616145
 C        -4.1376156504        1.8534953365      -16.8272588632
 C        -4.9411605319        1.3619874456      -15.4921010635
 O        -6.1052680337        1.5471275600      -15.3948439366
 C        -4.1600558450        0.5754176478      -14.3434305420
 C        -5.1897215172        0.0041282833      -13.2964506416
 C        -6.0206578609       -1.2034289505      -13.8331136877
 O        -5.6788439324       -1.7130516670      -14.8248802974
 C        -7.5259264524       -1.5734202390      -13.3232131242
 C        -8.3425293695       -0.2900399754      -13.8999040524
 O        -8.2792102444        0.7577499134      -13.2903105990
 C        -9.1888912923       -0.5099693407      -15.1239627671
 C        -9.4720261388        0.7899134456      -16.0577053120
 C       -10.4807528933        1.8624096312      -15.7113908624
 O       -10.2337161145        2.8734910804      -15.0459967703
 C       -11.7612808329        1.7469374544      -16.4877341188
 C       -11.2944813259        1.7931202111      -18.0864168148
 O       -10.2777482860        2.3972761687      -18.3426649707
 C       -12.2905325700        1.0916027321      -18.9787575421
 C       -12.6588538778        2.0825013958      -20.1270196571
 C       -14.0811596919        1.6769661626      -20.8636108528
 O       -15.0401652537        1.3450620570      -20.2325211941
 C       -13.9275787676        1.6130678413      -22.4623149181
 C       -13.2588671785        2.9304070770      -23.1654131337
 O       -12.7175885225        3.7527366454      -22.4864096981
 C       -13.3989946653        3.0189399358      -24.6604820988
 C       -12.8780135742        0.4995818441      -22.8295646568
 C       -15.3551630645        1.1917875260      -22.9890908526
 C       -12.4283081276        0.3702613436      -16.1769357921
 C       -12.7230195159        2.9868908938      -16.4116029373
 C        -7.9913815552       -2.8381854439      -13.8792149946
 C        -7.5415199437       -1.5089204209      -11.8019072679
 C        -5.0472792255        1.3901245928      -18.0287670776
 C        -2.6592715247        1.3172548825      -16.8054252951
 C        -8.7075376169        6.4107522937      -14.5276827255
 C        -6.5910604679        7.8165315614      -15.2629782740
 C        -6.6822260167        5.9645787452       -8.3603241122
 C        -4.8683166348        7.4845587291       -7.5133172340
 C         0.4190895350        3.3336118951       -6.4679247355
 C         2.2528940426        3.8097206793       -8.1823001651
 C         2.1197850992       -3.6883071198      -10.2902873424
 C        -0.0192561858       -2.5281902156      -11.1543428459
 C        -1.9602581322       -8.2686254680       -6.6615678548
 C        -1.6153968637       -6.9106594275       -4.6037642686
 C         0.9160920145      -12.8706296648       -2.2290465863
 C        -1.2641292895      -11.9336933731       -1.2400536398
 C         3.2194350045       -9.6691118735        2.9160033364
 C         2.9852095393       -7.0474241535        2.5549687287
 C         7.2379976094       -6.2977715889       -2.8842531446
 C         4.8647467274       -5.3836932947       -2.8670360048
 H         5.8004731268       -9.6008722052       -4.9381792644
 H         6.8805339463       -9.1144030008       -3.5583740644
 H         7.0276715713       -8.2958791295       -5.1594559859
 H         6.5954990770       -5.9480442653       -0.2935398032
 H         7.2828024452       -7.6661716959       -0.4607282414
 H         5.0298757524       -6.4774654384        1.2571464849
 H         6.5354475184       -7.3715528843        1.7944682468
 H         0.3724291671       -8.9885207549        1.4692238108
 H         1.3140881250      -10.2873279863        1.0904353082
 H         0.2059581521       -8.4677983538       -1.1088559543
 H        -0.7163060479       -9.7232175141       -0.4240770987
 H         1.2703374710      -11.9543470016       -4.9687131411
 H         1.5983287511      -10.5678331706       -3.8704412783
 H        -0.3899664917      -10.4514265132       -6.2931666864
 H         1.1972530725       -9.9370852830       -6.5725086360
 H         0.1695026310       -4.7979228075       -5.8908976074
 H        -1.1766508934       -5.0980835179       -7.2570613745
 H         1.0538445128       -5.6135888029       -8.5556968785
 H         1.7226413550       -4.4007243565       -7.5762279385
 H        -0.6411885924       -0.8275412580       -8.4635518978
 H        -0.1863227238       -0.2576059841      -10.0376276241
 H         1.8523065062        0.7694590262       -8.4707579323
 H         0.5841302985        0.7806774036       -7.2336186042
 H        -2.0157337320        4.5326940478       -7.1995866574
 H        -2.2236506984        3.4965647209       -8.5976218342
 H        -2.2061021397        5.9653296817       -9.8554495824
 H        -2.5412820933        6.5713515409       -8.3464454400
 H        -7.2667684974        7.2582400158      -11.3870642628
 H        -6.6376577197        5.7071073195      -10.8978116371
 H        -4.5055919367        6.3841633773      -12.4539237441
 H        -5.6384196466        7.7369194810      -12.8912708956
 H        -4.6899571359        6.0868881498      -16.2222520836
 H        -5.9210140188        6.2835932622      -17.5567207395
 H        -4.1914903405        4.6890288712      -18.3445688151
 H        -5.6850746025        3.8397820394      -17.9761192628
 H        -3.5136615166        1.2715060113      -13.8691692735
 H        -3.6129981779       -0.3062312781      -14.7663409791
 H        -5.9117199353        0.6673716685      -12.9073923439
 H        -4.6468066890       -0.3844581993      -12.4345533503
 H       -10.0375795827       -0.9481906658      -14.6871770015
 H        -8.7234475810       -1.1394149022      -15.8726777510
 H        -9.8287217792        0.3368174190      -16.9696651318
 H        -8.5566261513        1.3492983926      -16.3580764141
 H       -13.1735239535        0.6974327379      -18.6008666744
 H       -11.8749206154        0.1861322391      -19.3941992396
 H       -11.7767617949        2.2017236546      -20.7517668316
 H       -12.7997488241        3.1116333867      -19.6777127143
 H       -12.3732567949        2.9716482160      -25.1214853059
 H       -13.6898072505        4.0586146289      -24.8492756553
 H       -14.0073411146        2.2582584216      -25.0085161431
 H       -13.1886029352       -0.5031034727      -22.5785444598
 H       -11.9050852796        0.6911633447      -22.4837947389
 H       -12.7266697133        0.4377437257      -23.9542753741
 H       -16.1840700401        1.7038787404      -22.5393233366
 H       -15.5204263245        0.1166157384      -22.8751472748
 H       -15.4926770970        1.4102017872      -24.0224356705
 H       -13.5004810150        0.4958958322      -16.0988658613
 H       -12.1859599670       -0.0646585259      -15.1605793998
 H       -12.2649958403       -0.4855845400      -16.7970204931
 H       -12.2263554898        3.9667957975      -16.4765043001
 H       -13.2532355354        2.8882825011      -15.4384179345
 H       -13.3316465258        2.8655265749      -17.2918698453
 H        -8.3726077042       -2.8772985915      -14.8956715443
 H        -8.7376968474       -3.2837349328      -13.2936179483
 H        -7.2413759237       -3.6109436860      -13.8591521987
 H        -8.5117211231       -1.6298344075      -11.4257167307
 H        -7.2860498626       -0.4699485605      -11.6416227715
 H        -6.8940484947       -2.2861206957      -11.3694767193
 H        -5.2227097176        0.3392010462      -18.0123106931
 H        -4.6980732040        1.7611267581      -18.9739435482
 H        -6.0462599693        1.8241421160      -17.9167849503
 H        -2.6273752981        0.2905567186      -16.8447729685
 H        -2.2106823702        1.5476870378      -15.8501794054
 H        -2.1199466268        1.8273988714      -17.5481716267
 H        -8.9638797428        7.0490083929      -13.6557946520
 H        -8.9616007683        5.3549936157      -14.3175684599
 H        -9.3708156885        6.7940771747      -15.3417019057
 H        -5.4617592721        7.7857288619      -15.2300874531
 H        -6.9363158560        8.5823115685      -14.5434055597
 H        -6.8516408379        8.0331195157      -16.3000025622
 H        -6.5740036079        5.5456244751       -7.3441353206
 H        -6.9477332009        5.1043179029       -8.9882909724
 H        -7.5545388383        6.6335829219       -8.3221909830
 H        -3.9287343132        8.0090568605       -7.7066021387
 H        -4.6500915541        6.7240463556       -6.7523222931
 H        -5.6612263654        8.2422895991       -7.2132400034
 H        -0.5239167903        2.9425144457       -6.2950730783
 H         0.5269657797        4.3893547288       -6.1395441245
 H         1.1337852471        2.6301405156       -6.0306365250
 H         2.5411233966        4.3845847279       -7.3567990970
 H         2.4932330872        4.3443484848       -9.0617155129
 H         2.8196554573        2.9710381863       -8.1652548250
 H         1.9367624346       -4.3584751838      -11.1373263332
 H         2.5082943956       -4.2081901740       -9.4552756000
 H         3.0351409343       -3.1405774988      -10.5154155037
 H        -0.1326362055       -3.5219679972      -11.6710785259
 H         0.3531301408       -1.7498277083      -11.8098973453
 H        -0.9166527837       -2.0106157550      -10.6802609272
 H        -2.6646956908       -8.8973043911       -6.1416121999
 H        -1.5891445404       -8.9628865548       -7.5050915587
 H        -2.4972730538       -7.4617090015       -7.1796711761
 H        -2.2812015647       -6.0931665171       -4.9714564692
 H        -0.9554058038       -6.2938578448       -3.9991812578
 H        -2.1385075405       -7.5699776041       -3.9457541524
 H         1.9227527115      -12.6947792124       -2.6564287329
 H         0.4235725383      -13.6839953488       -2.8304356004
 H         1.0977831146      -13.2638292013       -1.2582909857
 H        -1.9469283562      -11.1240667404       -1.4809608135
 H        -1.0470467253      -11.8886621722       -0.1390677919
 H        -1.6887971475      -12.8857456271       -1.4720113095
 H         4.0633489427       -9.7356333565        3.6509864494
 H         3.2988162154      -10.6767478657        2.3788935989
 H         2.2928258722       -9.8317517815        3.5329561053
 H         3.9283554678       -6.7377223483        3.0137907755
 H         2.3381329319       -7.1116949289        3.4375776787
 H         2.7918379191       -6.1702697478        1.9330799224
 H         7.5597286339       -5.9023735358       -3.8508663222
 H         7.8612375687       -7.1635468536       -2.6465838240
 H         7.2641762679       -5.4683188755       -2.1404405856
 H         5.2153017310       -4.6432835151       -2.1165769942
 H         3.8520100153       -5.6439028019       -2.6593010462
 H         4.8939447643       -4.9616650308       -3.8511723510
 Na        2.6091279271       -8.1922783830       -2.5112693750
 Na       -8.0266490605        3.0783418901      -14.2671107007
