232

 C         6.5432371267       -8.7038883325       -4.5949527871
 C         5.5232926925       -7.8307379618       -3.8688153183
 O         4.3583674335       -7.8036490475       -4.2766887681
 C         5.8497849675       -6.8148239299       -2.7866992355
 C         5.5908708274       -7.5434009875       -1.4092870357
 O         4.6617689481       -8.3171079264       -1.3558160223
 C         6.5400314891       -7.4975643117       -0.1929417909
 C         5.7146931860       -7.3177769236        1.1339786915
 C         4.8730292620       -8.6467986281        1.3064071947
 O         5.3374357608       -9.6895915991        0.9231995074
 C         3.4043429421       -8.3628398994        1.9687589608
 C         2.3192606123       -8.3387733572        0.7497791462
 O         2.4607551687       -7.5503075764       -0.1558986790
 C         1.1519280677       -9.3839342890        0.8368810838
 C         0.3045946734       -9.5011837866       -0.4248462451
 C         0.8783591313      -10.4902310471       -1.3967651199
 O         2.0149943856      -10.3840022009       -1.8436104867
 C        -0.0084870200      -11.6546141678       -2.0493846657
 C        -0.3185319309      -11.2435976034       -3.5775257209
 O        -1.4783426578      -11.2750813529       -3.9853475769
 C         0.8435734982      -10.9720542349       -4.6230401675
 C         0.3404558835      -10.0633616221       -5.6699877867
 C         0.2764587249       -8.5358478323       -5.2116799914
 O         1.0338987538       -8.1730109662       -4.3382674701
 C        -0.7996984267       -7.6675449618       -5.8876965247
 C        -0.0217459371       -6.6976813602       -7.0068719478
 O         0.6246210908       -7.2096434929       -7.9003684807
 C        -0.0195186665       -5.2009738704       -6.8140838949
 C         0.9203636615       -4.4217894820       -7.8340099517
 C         0.1713996096       -3.5775074167       -8.8259604530
 O        -0.9793547184       -3.2367080529       -8.6049609479
 C         0.9753066504       -2.9490360750      -10.0387806172
 C         1.3033477000       -1.5210111248       -9.3949368261
 O         2.3920678891       -1.4375147401       -8.9098548998
 C         0.3283349588       -0.3748944493       -9.1682273394
 C         0.9001983367        0.7761892700       -8.3981523970
 C         0.1829967220        2.0534818617       -8.8407650979
 O        -0.5737630636        2.0797885655       -9.7903587620
 C         0.3955117724        3.4644073003       -8.0254966581
 C        -0.5620725218        4.5409684394       -8.6926991924
 O        -0.1625863073        5.1672539670       -9.6112094054
 C        -2.0050822248        4.6875288495       -8.1881700060
 C        -2.7386379474        5.8367285836       -8.8727848134
 C        -4.2058761830        5.3663930041       -9.0593231226
 O        -4.5109200599        4.2767700048       -9.3903096466
 C        -5.2704472434        6.5710065404       -8.8762326039
 C        -5.2935646910        7.3613449277      -10.1565975211
 O        -4.6108999978        8.4129255940      -10.1772836296
 C        -6.2124139959        6.9032580784      -11.2412477419
 C        -5.6015384043        6.9437478173      -12.6323970167
 C        -6.3416533344        5.9250949316      -13.5060391813
 O        -6.5533345066        4.7959508637      -13.1774778542
 C        -7.2337114697        6.5255665522      -14.8523635655
 C        -6.6913713022        5.4704708967      -15.9123249693
 O        -7.2581121141        4.4231831043      -16.0276009793
 C        -5.4460121795        5.6414823097      -16.7538942542
 C        -5.0331831904        4.3448125083      -17.4143088788
 C        -4.3993564172        3.5298431997      -16.2767049097
 O        -4.0181389834        3.9355486861      -15.1870669316
 C        -4.3978230150        1.9191626502      -16.5594670619
 C        -5.1629391778        1.3180635665      -15.3236282772
 O        -6.3485863666        1.6225991425      -15.2093548171
 C        -4.4764264143        0.5413516803      -14.3060998123
 C        -5.4200697586       -0.0432138321      -13.2953145188
 C        -6.1168395978       -1.2673024805      -13.8368560037
 O        -5.5643876109       -1.9650024851      -14.7205793981
 C        -7.5438631893       -1.5416114127      -13.2703978178
 C        -8.3761293281       -0.3357886450      -13.6828716851
 O        -8.2630937975        0.8133382636      -13.2382792549
 C        -9.3246747637       -0.4330588639      -14.8450623293
 C        -9.1485597309        0.6374216427      -15.9168451614
 C       -10.2961882821        1.7030505784      -15.8285089929
 O       -10.2061590187        2.5576603799      -14.9408491996
 C       -11.7109976850        1.6021872390      -16.5406187460
 C       -11.3989808987        1.7048331090      -18.1198734717
 O       -10.3234644621        2.1409112887      -18.4747384711
 C       -12.2772405067        1.1305383879      -19.2612155781
 C       -12.7127598046        2.2853730119      -20.2035142677
 C       -13.9319507243        1.9200839284      -21.0086658684
 O       -14.9291601617        1.5103321060      -20.4269421226
 C       -13.9260852916        1.6662443745      -22.6190785318
 C       -13.3580347044        2.9689792505      -23.2584654732
 O       -12.8143481823        3.8521125875      -22.6276498622
 C       -13.4736285862        3.0795654523      -24.8323157407
 C       -13.0405388744        0.4467023723      -22.8851859221
 C       -15.4300931279        1.4661055126      -23.0788756781
 C       -12.5367008124        0.3925023082      -16.1821191818
 C       -12.5493374372        2.8479815032      -16.1568772300
 C        -7.9637688838       -2.9666891461      -13.6617479520
 C        -7.3828005616       -1.5269371907      -11.6722314712
 C        -5.0691755897        1.5148972341      -17.8528862999
 C        -2.9717430215        1.3612501718      -16.6279039897
 C        -8.7168285275        6.4558304264      -14.7487273485
 C        -6.8208459189        7.9623107515      -15.1746451302
 C        -6.5758206391        5.9608484091       -8.4655029589
 C        -4.8968136438        7.6068477879       -7.6975860500
 C         0.2413132424        3.3049838264       -6.5127726177
 C         1.7230554525        4.0609391822       -8.4040627520
 C         2.3852111032       -3.4578964738      -10.4590778622
 C         0.0213129866       -2.8599061634      -11.3096508155
 C        -1.8342327820       -8.4198911358       -6.7338466207
 C        -1.3620503769       -6.8269796575       -4.6859306497
 C         0.7066489425      -13.0366585802       -2.0649382356
 C        -1.3997280815      -11.9520402890       -1.3996422635
 C         3.1103408953       -9.4451391060        2.9410285774
 C         3.4223085559       -7.0834934766        2.7951135181
 C         7.3058812276       -6.2669557971       -2.9744490150
 C         4.8369039022       -5.6233849382       -2.9971082072
 H         6.1215557257       -9.5041931494       -5.1623149845
 H         7.2900043643       -9.0650687215       -3.9512996705
 H         7.1429112581       -8.0028381291       -5.2017755616
 H         7.2687567793       -6.7053756703       -0.3630445648
 H         6.9845427129       -8.4974350577       -0.1725732773
 H         5.1233016782       -6.4576832668        1.0088563511
 H         6.4411249210       -7.1312885739        1.8683640875
 H         0.7267111463       -9.0031614990        1.8386880651
 H         1.6537509983      -10.3248314399        1.1906829987
 H         0.2328194394       -8.5773212421       -0.9777267926
 H        -0.7154279957       -9.7882012434       -0.1532986006
 H         1.0300221122      -11.9546056505       -4.9619549880
 H         1.7070951684      -10.6184993204       -4.1238740299
 H        -0.5460114946      -10.4995656204       -6.0838086540
 H         0.9787336266      -10.0884081912       -6.5533419136
 H         0.4756646810       -4.9762425248       -5.9420598080
 H        -1.0335779494       -4.7573278993       -6.9556559002
 H         1.7239463517       -5.0534339910       -8.2163057368
 H         1.4563639216       -3.7153940162       -7.0863186324
 H        -0.5247960768       -0.8222873631       -8.6337738797
 H        -0.0997993673       -0.0298673347      -10.0535403521
 H         1.9808357633        0.8791609725       -8.7642435549
 H         0.7699281179        0.6872463166       -7.2824281999
 H        -1.9968631217        4.7853016169       -7.0248180157
 H        -2.4999921760        3.7863525812       -8.3774999195
 H        -2.3555743930        5.9399806752       -9.8752250085
 H        -2.6175295283        6.8467962564       -8.4280417022
 H        -7.0589252997        7.5562718922      -11.3371428782
 H        -6.7266985611        5.9500300537      -10.9687609486
 H        -4.6285640888        6.6712948022      -12.6278371431
 H        -5.6891604828        7.9565873850      -13.0866589092
 H        -4.6072971340        5.8738770323      -16.0648959351
 H        -5.5454238635        6.4190330918      -17.4020290516
 H        -4.2091125922        4.4542364491      -18.0991838484
 H        -5.8400127812        3.7533641564      -17.9077789974
 H        -3.8422703835        1.3438725664      -13.7773860733
 H        -3.8732484254       -0.1981023523      -14.8535186953
 H        -6.2505569288        0.6600792355      -12.9973245385
 H        -4.8769633050       -0.3855712996      -12.3916570357
 H       -10.3623332221       -0.2261349986      -14.3844840098
 H        -9.2951968270       -1.3533248185      -15.4321941185
 H        -8.9641138476        0.1752634938      -16.8717062033
 H        -8.2639783869        1.2422788418      -15.7781776836
 H       -13.2390153818        0.6925611187      -18.8973138193
 H       -11.8494988621        0.2840305001      -19.7990545969
 H       -11.8235339356        2.6076254243      -20.7691519589
 H       -12.9301472846        3.1189978963      -19.5688481771
 H       -13.0170297093        3.9517731701      -25.2551389423
 H       -14.5384611901        3.1381360220      -25.0362608918
 H       -13.0587797029        2.1034199735      -25.1661219728
 H       -13.2244831269       -0.3763779950      -22.1992595138
 H       -11.9812246949        0.7472430899      -22.7799675458
 H       -13.0132335149        0.1567908813      -23.8732450545
 H       -16.1057088659        2.3096382824      -23.0145693917
 H       -15.9159029087        0.6858904415      -22.5402486306
 H       -15.4476176844        1.1151655831      -24.1496236773
 H       -13.5360036873        0.4382329689      -16.5864495353
 H       -12.6517270410        0.2347382343      -15.1502148790
 H       -12.1435775403       -0.5623564490      -16.5587316329
 H       -11.9441459275        3.7369490400      -16.4358622281
 H       -12.5913548592        2.8604359067      -15.0946999825
 H       -13.4483830505        2.8799267637      -16.7913541999
 H        -7.5880392232       -3.1160616687      -14.6616530949
 H        -9.0040456605       -3.3352042633      -13.7588627166
 H        -7.4535679752       -3.7436866907      -13.1041153085
 H        -8.3672181461       -1.2461457429      -11.1318840248
 H        -6.7022921743       -0.7913927680      -11.2864558194
 H        -7.1986360538       -2.5450335342      -11.5088408530
 H        -4.9591684184        0.3780240283      -17.9555227787
 H        -4.5342500177        2.0214824742      -18.6404878101
 H        -6.1570160712        1.6770129700      -18.0412138591
 H        -2.9527180364        0.3757667985      -17.2578558934
 H        -2.4886696517        1.0063878910      -15.7368699821
 H        -2.3769786450        2.1322905637      -17.1677909038
 H        -9.1457948737        7.4577070165      -14.4540270595
 H        -9.0548911082        5.7344887581      -13.9937694269
 H        -9.1273033946        6.1798090238      -15.7302180053
 H        -5.8196888699        8.0166123110      -15.5535359626
 H        -6.9636305047        8.5410304542      -14.2844160665
 H        -7.4373505586        8.3762307537      -15.9845290931
 H        -6.6037514385        5.5395181660       -7.4738890848
 H        -6.8672189020        5.1859559681       -9.1631265761
 H        -7.3655697938        6.7502610970       -8.4008533361
 H        -3.9790869754        8.1713052434       -7.9264964856
 H        -4.7802183517        7.1033521651       -6.7147639857
 H        -5.7262559692        8.2725796256       -7.6871361073
 H        -0.7465608564        2.7465590859       -6.2568895963
 H         0.3071045573        4.2855219535       -6.0502776373
 H         1.0994434649        2.6475059350       -6.2471186047
 H         1.7364435033        5.0917136995       -7.9968503436
 H         1.9654443766        4.0082754578       -9.5217589073
 H         2.5912891566        3.5034472227       -7.8970526012
 H         2.3518951435       -4.3842792256      -11.0488285180
 H         3.1379372741       -3.4606111290       -9.6383820947
 H         2.8904759667       -2.7010654343      -11.0325113725
 H        -0.1420937378       -3.8410455333      -11.6441301436
 H         0.6077865984       -2.3420490646      -12.0946998206
 H        -0.7415754866       -2.2337523789      -11.0867367797
 H        -2.1995948570       -9.3174450040       -6.2742741314
 H        -1.4326219254       -8.7974627829       -7.6535360661
 H        -2.6797531806       -7.8230062243       -6.9431489628
 H        -1.9898673587       -6.0459757896       -5.0334887781
 H        -0.7147533440       -6.2566620218       -4.0446633599
 H        -2.0438367531       -7.4916237195       -4.1124193373
 H         1.7589551853      -12.8568059688       -2.3132331548
 H         0.4130437800      -13.6879318581       -2.8765839349
 H         0.6807175839      -13.5524065144       -1.0934618732
 H        -2.0791651227      -11.1021139772       -1.1446223239
 H        -1.1483707482      -12.5382477437       -0.5290958111
 H        -1.8915940963      -12.6799767684       -2.0568319603
 H         3.6441087955       -9.3263529349        3.8752491460
 H         3.3820902400      -10.4765259906        2.7148142403
 H         2.0550532059       -9.4936410416        3.1744391671
 H         4.0898048215       -6.9257706155        3.6413663578
 H         2.4446830025       -7.0028954273        3.2474904542
 H         3.6180584739       -6.2427230392        2.1304866948
 H         7.3612845648       -5.8376262164       -3.9747212576
 H         8.0993799082       -7.0296991866       -2.9060604613
 H         7.4169263286       -5.3789773105       -2.3753300062
 H         5.3515514697       -4.7654477269       -2.5843668162
 H         3.8763116014       -5.7430049985       -2.4373801511
 H         4.6240922774       -5.4036066639       -4.0518407140
 Na        2.7361521166       -8.4126049290       -2.5162445455
 Na       -7.8308108549        2.8849022133      -14.1331945952
