232

 C         6.6974415092       -8.6068237876       -4.6135536438
 C         5.5759402076       -7.8556699746       -3.9600684046
 O         4.4145914265       -8.1133502626       -4.2539159438
 C         5.9725026666       -6.8581495218       -2.7634511319
 C         5.7308891742       -7.6862079700       -1.4277147507
 O         4.6734862096       -8.2500367125       -1.3257548279
 C         6.7030198954       -7.6364033603       -0.2179939389
 C         5.8145319133       -7.3434664834        1.0062973701
 C         4.8614857331       -8.4723903257        1.2417956925
 O         5.2104444192       -9.6029434496        0.8865452070
 C         3.3923454258       -8.2943395662        1.9886210828
 C         2.3729739327       -8.3076478548        0.8302321699
 O         2.4063145565       -7.5817675460       -0.1349098810
 C         1.2189632943       -9.4347953332        0.8107538726
 C         0.3320841028       -9.5294768834       -0.3495529204
 C         0.7952380676      -10.5027855049       -1.4315586966
 O         1.9162574454      -10.5387360440       -1.8425361611
 C        -0.0812317077      -11.6552868157       -1.9916136469
 C        -0.2931397934      -11.2854542322       -3.5415670352
 O        -1.3947993793      -11.3236593152       -3.8888928950
 C         0.8866035043      -11.0869136162       -4.5653774028
 C         0.4636536318      -10.1092191986       -5.6532359271
 C         0.3321201385       -8.6716724763       -5.2366468656
 O         1.0146350547       -8.2020814731       -4.3020249849
 C        -0.7228609552       -7.6159663397       -5.9508321531
 C         0.1147868068       -6.6492223945       -7.0064201845
 O         0.5350096609       -7.1588166610       -8.0060265918
 C         0.0817716692       -5.0839055943       -6.7063578377
 C         1.0197132384       -4.3509192508       -7.7105196831
 C         0.2144270843       -3.5252641318       -8.7971487526
 O        -0.8849433331       -3.0943845300       -8.4770190301
 C         1.0068373913       -2.8863957256      -10.1674747601
 C         1.4305944537       -1.5328493906       -9.3452689873
 O         2.5374293660       -1.4480334962       -8.8467247378
 C         0.3818964956       -0.4210511115       -9.2900582462
 C         0.8899083753        0.7904314818       -8.4591617067
 C         0.1161463061        2.0966932262       -8.9074669230
 O        -0.6014941008        2.0000532893       -9.8764733203
 C         0.3571926595        3.4473761185       -8.1575818765
 C        -0.6822431137        4.5133079194       -8.7146193882
 O        -0.3852600465        5.2391023360       -9.6962165761
 C        -2.0994496976        4.6453564844       -8.1075057289
 C        -2.7404777190        5.7947188110       -8.8862620969
 C        -4.1577198412        5.4700838503       -8.9864728125
 O        -4.5449175046        4.3291594789       -9.2106988707
 C        -5.2845515818        6.5626942999       -8.8033014233
 C        -5.2387297651        7.4685303867      -10.1726218655
 O        -4.5053844993        8.4157701288      -10.3173462099
 C        -6.1455662476        6.9949718324      -11.2813568954
 C        -5.6048805140        6.9720628333      -12.7238196302
 C        -6.5458746394        6.0526991213      -13.5678048269
 O        -6.6138530842        4.8614872684      -13.1892789900
 C        -7.2224594620        6.5378178056      -14.8570161260
 C        -6.6509377999        5.4735161228      -15.9396575836
 O        -7.3276763724        4.4753681625      -15.9973242620
 C        -5.4038479264        5.8097285739      -16.8408721012
 C        -4.9056930873        4.4747648701      -17.3363849492
 C        -4.4593200769        3.4417649469      -16.2344373687
 O        -4.2734735099        3.8973263010      -15.1517119096
 C        -4.4181285069        1.9196735330      -16.5913412471
 C        -5.2672354056        1.3814067707      -15.2978118566
 O        -6.4393345765        1.6067801577      -15.1918718504
 C        -4.3953395337        0.6336984750      -14.1907733079
 C        -5.2194441838       -0.1049343529      -13.1673241900
 C        -6.0615185630       -1.3556316885      -13.7202072334
 O        -5.6975840876       -2.0705973636      -14.5947006980
 C        -7.4863177937       -1.6220479107      -13.1317906140
 C        -8.4027136480       -0.3456546992      -13.6280587343
 O        -8.2701123648        0.6915276073      -13.0632833494
 C        -9.4943761503       -0.5679409758      -14.8197032269
 C        -9.3484013222        0.4790847201      -16.0113401007
 C       -10.3418770480        1.5544830805      -15.8111159043
 O       -10.1201078048        2.4581345053      -14.9368875519
 C       -11.6216113677        1.5556134147      -16.6476202127
 C       -11.3024180259        1.6362590248      -18.1852124095
 O       -10.2257672119        2.0627482438      -18.5034606499
 C       -12.3888049992        1.2896699288      -19.2164090297
 C       -12.7174297897        2.3412973429      -20.2657238181
 C       -13.9668916548        1.8628459004      -21.0585883739
 O       -14.9483332782        1.6251142324      -20.4405600508
 C       -13.9269160268        1.7592505570      -22.6473350258
 C       -13.3149222252        2.9864353181      -23.3576597697
 O       -12.8868659237        3.9139871747      -22.7102392791
 C       -13.5394648361        3.0818490256      -24.8657002330
 C       -13.1378509950        0.4659534586      -22.9611505409
 C       -15.3255160552        1.5767692842      -23.1124935454
 C       -12.4325474597        0.3162100080      -16.2154283733
 C       -12.4641420215        2.8858947284      -16.0861251219
 C        -8.0872784970       -2.9040920200      -13.6170009104
 C        -7.4638066149       -1.5633134935      -11.5667880937
 C        -5.2286235529        1.5609112880      -17.8701062361
 C        -2.9097401698        1.5649030705      -16.4988715923
 C        -8.7543871155        6.3154958728      -14.6888244173
 C        -6.8205156264        7.9782311359      -15.2300438750
 C        -6.5909163182        5.8429706314       -8.4438932689
 C        -4.8912680986        7.5664575726       -7.6653297320
 C         0.0601141370        3.2547750040       -6.5728111264
 C         1.8106189950        3.9218754493       -8.4134852887
 C         2.2924474995       -3.5385480477      -10.5039461983
 C         0.0519796600       -2.9003470436      -11.4245818069
 C        -1.7777328568       -8.3787193375       -6.6560305134
 C        -1.3776228803       -6.6340998070       -4.9300127566
 C         0.7128349418      -12.9058723428       -2.0586987794
 C        -1.5161787551      -11.9054312085       -1.4161415965
 C         3.1031580380       -9.5405763486        2.9974443721
 C         3.4665089947       -6.9918129897        2.8251630188
 C         7.3455364386       -6.2578622786       -3.0935723298
 C         4.9131257490       -5.6972274258       -2.7820787143
 H         6.3004459763       -9.3722194639       -5.1625971206
 H         7.4342853659       -9.0005750462       -3.9135469863
 H         7.3564286556       -7.9239052588       -5.1938937984
 H         7.4313815886       -6.9140797563       -0.3890996746
 H         7.0979509854       -8.6040035198       -0.0690930505
 H         5.2634770224       -6.4068612396        0.8514169301
 H         6.5048191760       -7.2198374050        1.7902168407
 H         0.7652259507       -9.4325410652        1.8186030893
 H         1.8608779701      -10.3783350682        0.8994256574
 H         0.1480770924       -8.5812231075       -0.9025472678
 H        -0.6479657282       -9.8431260609        0.1074629466
 H         1.1201770809      -12.0724611510       -4.8601588519
 H         1.8013331748      -10.6734738511       -4.0807216663
 H        -0.4316731771      -10.3868522695       -6.2032293621
 H         1.2268400302      -10.1690800044       -6.4436774624
 H         0.4183154931       -4.8008531827       -5.7585412201
 H        -0.8696654601       -4.6884626786       -7.0344738145
 H         1.6416246742       -5.0903019931       -8.1784443744
 H         1.7099036294       -3.7068810181       -7.1289061281
 H        -0.5818633656       -0.8708708106       -8.8379894943
 H         0.0768557356       -0.1132350096      -10.2804269915
 H         1.9374597061        1.0026046628       -8.7071607719
 H         0.6776875183        0.6346416480       -7.3841137055
 H        -2.0037708961        4.9691103345       -7.1205694493
 H        -2.6550604205        3.6748436361       -8.0562917105
 H        -2.3290623553        5.9228646686       -9.9355155126
 H        -2.6136709325        6.7179341776       -8.3559732174
 H        -7.0974996962        7.6337567554      -11.3385015391
 H        -6.6455585160        6.0125209277      -11.0078129338
 H        -4.6923542077        6.3258705084      -12.7161719112
 H        -5.3733554629        7.9395793910      -13.1551576958
 H        -4.6452132276        6.4198743710      -16.2878927287
 H        -5.7393027192        6.4136614216      -17.7191156231
 H        -4.2079496723        4.5131246622      -18.2285943221
 H        -5.8115283360        4.0097100597      -17.6969368253
 H        -3.7392433994        1.2519861624      -13.6710047020
 H        -3.8667010023       -0.0643260148      -14.8521963753
 H        -5.9601903923        0.5583288976      -12.7548008796
 H        -4.5571172702       -0.5108125919      -12.3262831368
 H       -10.4939952040       -0.3608077075      -14.3995183844
 H        -9.4116002726       -1.5399269548      -15.2971902525
 H        -9.3904989464        0.1011297775      -17.0640133307
 H        -8.2894193914        0.9681533485      -15.9862088200
 H       -13.3400163880        0.9519988060      -18.7282346490
 H       -12.1411729243        0.3357593369      -19.8454160682
 H       -11.7918611225        2.4588481926      -20.7300639014
 H       -12.9279285001        3.3136762103      -19.8013911472
 H       -13.5855426134        4.1790875447      -25.1897096867
 H       -14.4703688512        2.5692742086      -25.1297365028
 H       -12.7230387196        2.5685211365      -25.2483482170
 H       -13.4115426730       -0.3676725833      -22.2923172060
 H       -12.0396052539        0.5618521828      -22.9164236876
 H       -13.2046572479        0.2763608707      -24.0532633662
 H       -15.9768398906        2.4428971644      -23.2721490136
 H       -15.8681547698        1.0264098416      -22.3499173337
 H       -15.3821706139        0.9209945165      -24.0367984149
 H       -13.2454126089        0.0456503760      -16.8253838044
 H       -12.8641755136        0.5262764943      -15.1977001716
 H       -11.9205619769       -0.6322076495      -16.1045673138
 H       -11.9954298406        3.8020631186      -16.5015125821
 H       -12.2796805521        2.9183710711      -15.0490933989
 H       -13.4106655151        2.8393062167      -16.4617014999
 H        -7.7051155584       -3.0951145715      -14.6422717896
 H        -9.1576993799       -2.8441380073      -13.8474552899
 H        -7.9551677120       -3.8393005445      -13.0953996654
 H        -8.4632772584       -1.4851179031      -11.0615769473
 H        -7.0424734741       -0.5844467686      -11.3125978763
 H        -6.9664743997       -2.4844656432      -11.2814193149
 H        -5.0821023991        0.4692957524      -18.0253243129
 H        -4.9665024719        2.0972861964      -18.7135995132
 H        -6.3294560991        1.6479434109      -17.7660901051
 H        -2.7452682097        0.4559967756      -16.6159566182
 H        -2.4035148203        1.7779795249      -15.5359906154
 H        -2.4729416988        2.1257539094      -17.3957282233
 H        -9.2809044997        7.2225793516      -14.2648039328
 H        -8.9596874990        5.5590531758      -13.9841371439
 H        -9.1543322129        6.0678000743      -15.6578051756
 H        -5.7522767742        8.1426146325      -15.3736706276
 H        -7.2708514292        8.6721856920      -14.5926940776
 H        -7.2075395744        8.0668147446      -16.2192039728
 H        -6.7716929489        5.5267659030       -7.4510053749
 H        -6.6847921962        5.0328730033       -9.1326756968
 H        -7.4414654951        6.5632507033       -8.5931372939
 H        -4.1094742932        8.1076717291       -8.0876893566
 H        -4.5732448184        7.1242412072       -6.7253602294
 H        -5.7453273889        8.1985787971       -7.4730832727
 H        -0.8849176126        2.8732249591       -6.3094977354
 H         0.1805678880        4.2709530838       -6.2362302432
 H         0.9185218559        2.6457767657       -6.1904118284
 H         1.9232853755        5.0506902786       -8.3411127202
 H         2.1401058595        3.5164923720       -9.4533022337
 H         2.5529058299        3.4605125277       -7.7151918216
 H         2.1307447063       -4.6498422253      -10.6960302847
 H         3.1355853533       -3.2508483294       -9.8925385302
 H         2.6877849332       -3.1209641495      -11.4023470061
 H        -0.0161688282       -3.9404136108      -11.6106027623
 H         0.5353164090       -2.4813553325      -12.2609517779
 H        -0.8428067884       -2.3831977300      -11.1802012615
 H        -2.3276241386       -9.0719647875       -6.0895602767
 H        -1.4589508960       -8.9916683826       -7.5756205280
 H        -2.5028139494       -7.6720399109       -6.9518889359
 H        -2.0790037582       -5.9127891075       -5.3183117327
 H        -0.7206176838       -5.9907103777       -4.3508664333
 H        -1.9954150348       -7.2380010824       -4.2451641575
 H         1.6645604713      -12.6359595444       -2.5310577957
 H         0.3232622254      -13.6093877536       -2.8245130914
 H         0.8650517061      -13.3578184684       -1.1635613823
 H        -2.0583708215      -10.9448580227       -1.4281144889
 H        -1.4435047911      -12.3438382560       -0.4016930780
 H        -2.0000364910      -12.5969565584       -2.0114500497
 H         3.8429507587       -9.6003690514        3.7445055285
 H         3.0571871111      -10.5919703312        2.6783347361
 H         2.1538606504       -9.3543895476        3.4020518114
 H         4.0667376702       -7.0339320799        3.7171102002
 H         2.4869077503       -6.8332150581        3.2578813506
 H         3.8260922487       -6.1071776380        2.2563923177
 H         7.3840335515       -5.9086557765       -4.0870717453
 H         8.0333989275       -7.1175830116       -2.9966749407
 H         7.6434550351       -5.3370262082       -2.5462128265
 H         5.2606183160       -4.8397497894       -2.1359599409
 H         3.9064039958       -6.0099167009       -2.4462283426
 H         4.8623368082       -5.2914084515       -3.7741873122
 Na        2.7105779184       -8.3869076694       -2.6903416090
 Na       -7.8399890948        2.9632856302      -14.0646603562
