232

 C         7.0073382567       -8.4138443773       -5.0099831703
 C         5.9204346031       -8.0438878850       -4.0006909693
 O         4.8440367861       -8.6310541669       -4.0701022212
 C         6.0887310321       -7.0055186796       -2.8510074683
 C         5.6866322080       -7.8857598533       -1.5448567780
 O         4.6994525150       -8.5447080298       -1.4355014483
 C         6.6070008809       -7.8200655863       -0.2871900466
 C         5.8769081138       -7.5168598110        0.9946379401
 C         4.9151011725       -8.6294698690        1.1938221516
 O         5.2106693666       -9.7909049970        0.9054575009
 C         3.4740579071       -8.3437856411        1.8736787529
 C         2.3946074032       -8.4494471283        0.7475973925
 O         2.2992783747       -7.5577492763       -0.0755147057
 C         1.4863423121       -9.7092688327        0.8591595975
 C         0.4137455407       -9.6082028350       -0.2919893110
 C         0.8565021790      -10.4512232248       -1.4459566823
 O         1.9716534623      -10.4327713076       -1.9966686058
 C        -0.1686932046      -11.5112856074       -2.0169685321
 C        -0.3633499654      -11.0720631193       -3.5787070086
 O        -1.4416946630      -11.1754471492       -3.9680518699
 C         0.8492484166      -10.8332466867       -4.5911768085
 C         0.6024802591       -9.8139348413       -5.6286285621
 C         0.3777136193       -8.3892387557       -5.1876527297
 O         0.8727395564       -7.9291404317       -4.1976143166
 C        -0.5619882297       -7.4628094973       -5.9937754889
 C         0.2418704157       -6.6834435609       -6.9600897344
 O         0.5423437248       -7.1370287963       -8.0458318271
 C         0.5563460984       -5.2617759181       -6.6691231040
 C         1.3468474379       -4.5286415803       -7.7907768858
 C         0.5137628107       -3.5715286331       -8.5959932139
 O        -0.5777578727       -3.1849316760       -8.1819756198
 C         1.0871971583       -2.9734313382       -9.9291560414
 C         1.7250198539       -1.5531113588       -9.4765436754
 O         2.7803315827       -1.3992680568       -8.9087995074
 C         0.7788661650       -0.3447738119       -9.8336900302
 C         0.8192132893        0.7407967422       -8.8022511135
 C        -0.0681130259        1.9890191482       -9.1531125210
 O        -0.8784396777        2.0182676977      -10.0601996144
 C         0.2028836590        3.2400208784       -8.3589705351
 C        -0.5630188410        4.4950364095       -8.9191194045
 O        -0.1002664092        5.0425309377       -9.9346751483
 C        -2.0089730831        4.7678470862       -8.3021134346
 C        -2.8955792030        5.9184011238       -8.7914056989
 C        -4.4259028979        5.4606817696       -8.7023396637
 O        -4.7108457165        4.3103280421       -8.8594504870
 C        -5.5108184490        6.8127996793       -8.7655695570
 C        -5.2238341483        7.3321078672      -10.1949909364
 O        -4.2298307918        8.0359144089      -10.3682080159
 C        -6.2418905403        7.0310277343      -11.2762926380
 C        -5.8198699527        6.9591433503      -12.7097562486
 C        -6.7498838533        6.0120593860      -13.5210631107
 O        -7.0152709674        4.9106755049      -13.0346003657
 C        -7.3270530949        6.5330478628      -14.8395075431
 C        -6.7561961105        5.4321380485      -15.9615155543
 O        -7.2757361044        4.3510432543      -16.0575681863
 C        -5.6569843386        5.8397484603      -16.9333512101
 C        -4.7549321250        4.5895097609      -17.3241289696
 C        -4.7301888973        3.6829710593      -16.0795380346
 O        -4.8454147460        4.1661693146      -14.9926408179
 C        -4.5734860032        2.1381245494      -16.2437959461
 C        -5.2137947888        1.1808917239      -15.0726932451
 O        -6.4293498282        1.2352318399      -14.9682763167
 C        -4.4235105776        0.4256906183      -14.1356787189
 C        -5.3796570393       -0.1264614173      -13.0094479279
 C        -6.1702234469       -1.4108814736      -13.4933029418
 O        -5.8255655527       -2.1635003279      -14.3665138523
 C        -7.5945493122       -1.5870617230      -12.7114183672
 C        -8.4877036100       -0.5027354854      -13.5050788630
 O        -8.3620056851        0.6469108356      -13.1601977461
 C        -9.4756555990       -0.7725958662      -14.6930548630
 C        -9.3150300648        0.1452578918      -15.8635192011
 C       -10.2210008286        1.3979281209      -15.8659897932
 O        -9.9426449280        2.4589037953      -15.2689545420
 C       -11.6208996590        1.4766866060      -16.6811478674
 C       -11.3580171972        1.6251482055      -18.2278131589
 O       -10.2206287946        1.6776848806      -18.6255879115
 C       -12.6176343439        1.7895577007      -19.0833324183
 C       -12.4829179016        2.2009933383      -20.5833808612
 C       -13.9051306137        2.0817736843      -21.1409072031
 O       -14.8795595998        1.9682711248      -20.4743538980
 C       -14.0630373167        1.8910203183      -22.6954126431
 C       -13.4410262845        3.1557720201      -23.4482215537
 O       -12.8779460358        4.0266697617      -22.8235890315
 C       -13.4569763667        3.1863247142      -24.9898669378
 C       -13.2405345730        0.6363204644      -23.1638550402
 C       -15.5171206671        1.7284729408      -23.1401028982
 C       -12.5992321950        0.2981825614      -16.2836785390
 C       -12.3302405582        2.9269160109      -16.1361362394
 C        -7.9162207015       -3.0351402530      -13.1423212115
 C        -7.5582749873       -1.4306079357      -11.2394416770
 C        -5.2426179542        1.5821938654      -17.5256932307
 C        -3.0763247902        1.9502973771      -16.5531981894
 C        -8.9802181527        6.4663981012      -14.7112758337
 C        -7.0143062309        7.9540494494      -15.3213170626
 C        -6.9962655007        6.4186130061       -8.4984800723
 C        -5.1280247687        7.8042435075       -7.6456064062
 C        -0.0194258932        2.9274236997       -6.8350158705
 C         1.7772028583        3.6424199827       -8.4631267774
 C         2.1909690388       -3.7844948263      -10.5437268675
 C         0.0539729347       -2.7921061957      -11.0817794062
 C        -1.5883328294       -8.2162965412       -6.8827453130
 C        -1.2951738014       -6.7037014857       -4.9207667142
 C         0.5193119338      -12.8947532420       -1.9020480894
 C        -1.4663198102      -11.7031113935       -1.3189872716
 C         3.4230715884       -9.1962066227        3.1879867138
 C         3.3148515326       -6.7857646202        2.3651354227
 C         7.5539993424       -6.4043257098       -2.8490643343
 C         5.0860099850       -5.8723394407       -2.9913210123
 H         6.6216018718       -9.0298195583       -5.7428270665
 H         7.8667049292       -8.8774881693       -4.5175444877
 H         7.5713723638       -7.4613827760       -5.2801160540
 H         7.3906238069       -7.0484378445       -0.5184898806
 H         7.0815521608       -8.8629758833       -0.2156787666
 H         5.3559412159       -6.5532984048        0.9064350643
 H         6.5484932421       -7.4808139187        1.8392536217
 H         1.0694260199       -9.7861828666        1.9122268467
 H         2.2616042518      -10.5048437405        0.8673272352
 H         0.2931846135       -8.5855752271       -0.4992195840
 H        -0.4919713063      -10.0466848213        0.1203184008
 H         0.9273536962      -11.7286203493       -5.1595312142
 H         1.8149903228      -10.7885798901       -4.0868437364
 H        -0.2211898581      -10.1310532148       -6.2386756480
 H         1.4911304236       -9.9241543011       -6.3027267763
 H         1.1811863578       -5.1767905325       -5.8270845624
 H        -0.3753941824       -4.5762405110       -6.6233590723
 H         1.9459255699       -5.2756430814       -8.3180437207
 H         2.1207020012       -3.7932309433       -7.3115124094
 H        -0.2600490119       -0.6963298785       -9.7642768130
 H         0.9150638530        0.0802854853      -10.7477352087
 H         1.7888548268        1.2820698816       -8.7081170849
 H         0.4589836115        0.3860049745       -7.8076002892
 H        -1.8250673478        4.9321602401       -7.1766369245
 H        -2.5132632173        3.8152538368       -8.3819022733
 H        -2.6956880653        6.0966941414       -9.8317328588
 H        -2.6972266468        6.7850855496       -8.1497591106
 H        -6.9932169941        7.7165836068      -11.0874776979
 H        -6.7698295219        6.1297363764      -11.0037700429
 H        -4.8762811679        6.5470087856      -12.6217403213
 H        -5.6389942086        7.9531901671      -13.1632077854
 H        -5.0163565634        6.6347178373      -16.5499238511
 H        -6.0368060579        6.2102799847      -17.7910824012
 H        -3.7460410555        4.9304049969      -17.4956212788
 H        -5.0011317694        4.0388907337      -18.2303878322
 H        -3.5742154617        1.0765794506      -13.7127499959
 H        -3.9237336276       -0.4221745526      -14.7125695575
 H        -6.1760210582        0.5571235229      -12.7200262193
 H        -4.7972157744       -0.4484834340      -12.1437300850
 H       -10.5473867778       -0.6068696444      -14.3692288528
 H        -9.3821523973       -1.7691927927      -15.1067594359
 H        -9.4542246748       -0.2307010818      -16.8078983592
 H        -8.2696204137        0.3405363148      -15.8873372413
 H       -13.3800008527        2.4511818432      -18.7100909341
 H       -13.0141642737        0.8035452383      -19.0895085493
 H       -11.7609400265        1.4948901965      -21.0409862432
 H       -11.9657063641        3.1630902952      -20.6013945006
 H       -14.4633203166        3.1040376998      -25.4743420536
 H       -12.8120495509        2.3502794933      -25.1982693414
 H       -12.9229832913        4.0669945966      -25.2430800619
 H       -13.6844274877       -0.2874674761      -22.8896846648
 H       -12.2886252035        0.5996525773      -22.6371902160
 H       -12.9866350620        0.6962626087      -24.1742708703
 H       -16.1063841915        2.6087102577      -23.0919929142
 H       -16.0671477106        1.0727514153      -22.5751377487
 H       -15.5364672871        1.2953485288      -24.1721958637
 H       -13.5156618773        0.3211009783      -16.8335245546
 H       -12.8943252512        0.4528509972      -15.2536890274
 H       -12.2905975371       -0.7677443525      -16.3805721425
 H       -11.6049189489        3.7708224344      -16.4806581033
 H       -12.2323446406        2.8871681726      -15.0481644170
 H       -13.3290132397        2.9940005787      -16.5392251462
 H        -7.9095902549       -3.2083127000      -14.1927155457
 H        -8.9257742332       -3.3775854383      -12.8949732933
 H        -7.2233399829       -3.7201554126      -12.7249613109
 H        -8.2738420237       -2.2419786216      -10.8846500800
 H        -7.9583946123       -0.4699282156      -10.9751985028
 H        -6.6118302251       -1.6521851904      -10.8661670810
 H        -5.0905254783        0.4266930687      -17.5797836945
 H        -4.8400802938        1.8849384852      -18.4374612377
 H        -6.3487269394        1.8503700388      -17.5431956605
 H        -2.6108395940        1.0278264862      -16.1126239687
 H        -2.6120817819        2.7380998811      -16.0889817281
 H        -2.7857775087        1.8449080011      -17.5901331738
 H        -9.2861676918        6.5535435389      -13.6251071481
 H        -9.3377737114        5.4727741466      -14.8970433622
 H        -9.3345872465        7.1401823750      -15.4915485734
 H        -5.8966840178        7.9768563308      -15.3694908067
 H        -7.3674426618        8.7183010672      -14.6271097930
 H        -7.4516231634        8.1266837520      -16.3516258384
 H        -7.0475655226        6.1527133493       -7.4636747974
 H        -7.3279378869        5.5722678837       -9.0593855148
 H        -7.7533776681        7.2746082244       -8.5461873470
 H        -4.2494534168        8.3697651069       -8.0004937895
 H        -4.8929030953        7.1216474455       -6.7704967811
 H        -5.9430517894        8.3795850298       -7.2225795183
 H        -1.0725235656        2.6215974553       -6.7643323666
 H         0.1404235659        3.7826894715       -6.1966648228
 H         0.8031178705        2.2007694038       -6.5740408686
 H         1.8962396584        4.5769795104       -7.9816151668
 H         2.0382106510        3.8837024072       -9.5065961261
 H         2.4682107152        3.0129251881       -8.0173052214
 H         1.7044793085       -4.7045778795      -10.9503729029
 H         2.9929099369       -4.1258190395       -9.8342029920
 H         2.6203635373       -3.1961898593      -11.3198797121
 H        -0.0684484165       -3.7685390657      -11.6203053276
 H         0.3966614888       -1.9434009925      -11.7657897155
 H        -0.8465873132       -2.6408298606      -10.5199017339
 H        -2.0768749520       -8.9719879736       -6.3151507599
 H        -1.1101456387       -8.8013149561       -7.7353877280
 H        -2.3699679189       -7.6475706523       -7.2817013296
 H        -1.9562862494       -5.9536192183       -5.2782620666
 H        -0.5399488549       -6.1319231075       -4.3880750772
 H        -1.8814887490       -7.2456736080       -4.1539744021
 H         1.4275156483      -12.9087397893       -2.5683705604
 H        -0.1031749962      -13.7533694684       -2.2863961579
 H         0.7542391070      -13.0859126900       -0.8879855025
 H        -2.0783916632      -10.7571004019       -1.4182586935
 H        -1.1539687327      -11.9246745627       -0.2915291263
 H        -2.0271212690      -12.5041427823       -1.7381119637
 H         4.2304738742       -8.7525784069        3.8278746126
 H         3.7897090896      -10.2919023371        3.1062995422
 H         2.4469559674       -9.2145879759        3.7291634539
 H         4.2445802800       -6.4808100294        2.8918549622
 H         2.5304652801       -6.6784441253        3.1342622038
 H         3.0888063101       -6.0807061359        1.5188888758
 H         7.6742442680       -5.8379120648       -3.7650154740
 H         8.3391265930       -7.1925866928       -2.7404961312
 H         7.7946372556       -5.6371696787       -2.0678546111
 H         4.8299195191       -5.5064809904       -2.0033735015
 H         4.1202105536       -6.1295459272       -3.4597700424
 H         5.5187284741       -5.0393119402       -3.4827718798
 Na        2.7722132059       -8.3658359626       -2.5541539607
 Na       -7.9710421054        3.0543917501      -14.1454900846
