232

 C         6.8919916551       -8.5021457549       -5.2632782467
 C         5.8717754898       -8.2079060954       -4.1332794459
 O         4.8217037203       -8.8405298256       -4.1435778263
 C         6.3696333907       -7.2671272236       -2.9281682180
 C         6.0306758010       -7.9674136992       -1.5592125170
 O         4.9046321811       -8.4642485060       -1.5052790410
 C         6.9155891410       -8.1741660754       -0.3594828419
 C         6.1950197809       -7.7558832702        0.9848632867
 C         5.0120855009       -8.6865774698        1.4668196716
 O         5.1683699877       -9.8525211306        1.7065974328
 C         3.5858317344       -7.9713827629        1.8206556187
 C         2.5714523798       -8.4200782989        0.7104572830
 O         2.5166925479       -7.7795877135       -0.3253679832
 C         1.7582771516       -9.6577494983        0.8828737992
 C         0.5368687003      -10.1519955391        0.0304282950
 C         0.8503073953      -10.6862697631       -1.4031892166
 O         1.9177373481      -10.4707842280       -1.9329816763
 C        -0.1816523673      -11.4926784986       -2.3256181254
 C        -0.3307384193      -10.7257963949       -3.6822264099
 O        -1.3980637710      -10.1486666002       -4.0521393534
 C         0.8867753444      -10.7192098039       -4.5607134918
 C         0.9515988357       -9.6561985363       -5.6793612358
 C         0.4658601236       -8.3118649358       -5.1282388505
 O         1.0420434530       -7.8429320748       -4.1016169749
 C        -0.4398685832       -7.3181792424       -5.8512051584
 C         0.6010259286       -6.6726960301       -6.9334897617
 O         0.9599389847       -7.3495491291       -7.8820464885
 C         1.1498358743       -5.3788438307       -6.5660434412
 C         1.8853339573       -4.6949454611       -7.7517977340
 C         0.8609377857       -3.8788839350       -8.6054546506
 O        -0.1023146080       -3.5222052146       -7.9551584781
 C         1.2179018055       -3.2035475971       -9.8870575578
 C         1.7301115745       -1.7024310380       -9.4949569707
 O         2.7509571778       -1.4861346418       -8.8809343269
 C         0.8278866403       -0.5277774904      -10.0310198301
 C         1.0044435551        0.8117331968       -9.3060576367
 C        -0.1369142318        1.9243682437       -9.3822176040
 O        -1.0221211523        1.8666000044      -10.1825317736
 C         0.1843063730        3.1950357657       -8.5140479935
 C        -0.8824009857        4.3749931799       -9.0198999554
 O        -0.4504897908        5.1666372968       -9.7702574450
 C        -2.3732578939        4.2173513657       -8.6483757330
 C        -3.0696802540        5.5530382882       -8.8819097467
 C        -4.4977044308        5.5522629589       -8.3659643407
 O        -5.0708415207        4.6989710088       -7.7090525854
 C        -5.3677242182        6.8467585028       -8.7561631242
 C        -5.4209441718        7.0005363053      -10.2633202417
 O        -4.5394074885        7.5301076746      -10.8566633112
 C        -6.5648386842        6.4663034705      -11.1387414865
 C        -6.3186785045        6.7981573419      -12.6318717903
 C        -7.2170238268        5.9697320360      -13.5512296835
 O        -7.7420111184        4.9178899069      -13.1766761229
 C        -7.7956253692        6.5620918198      -14.9578564083
 C        -7.1596752243        5.5496259070      -15.9625818152
 O        -7.7269537284        4.5604557344      -16.3737989087
 C        -5.7705810256        5.7889507905      -16.4077088488
 C        -5.0712175003        4.6341925405      -17.1159517351
 C        -4.8306273879        3.5621478490      -15.9196689760
 O        -5.0866789961        3.8276824996      -14.7623083364
 C        -4.3813898133        2.0006286654      -16.0985080071
 C        -5.0608220011        1.1659422410      -14.9517451607
 O        -6.2662889995        1.0514407114      -14.9586549134
 C        -4.1856193712        0.4331436819      -13.8009412284
 C        -5.0685548409       -0.2891919782      -12.7259082784
 C        -6.3069536473       -1.1204301523      -13.2539422539
 O        -6.0425953166       -1.9885134348      -14.0645749675
 C        -7.8269800229       -1.1060733197      -12.7149651253
 C        -8.6650341189       -0.0514185360      -13.4825332808
 O        -8.6580000140        1.1059154447      -13.0813443279
 C        -9.3248973046       -0.6673663260      -14.7159813591
 C        -9.3607222187        0.1192593510      -16.0820821141
 C       -10.3404050190        1.3142430595      -15.9247769408
 O       -10.0105142489        2.3671560961      -15.4460330287
 C       -11.7531873453        1.3630268549      -16.5403374646
 C       -11.5379117335        1.4205240996      -18.1579235803
 O       -10.5806657746        0.8656069304      -18.6418628574
 C       -12.4387420954        2.1489935314      -19.1292097355
 C       -12.6973835999        1.5827488239      -20.5738118735
 C       -13.9164351062        2.2218319469      -21.2728081017
 O       -14.8587298006        2.6509821591      -20.6065264333
 C       -14.0351190037        2.1486644514      -22.7725640586
 C       -13.2758587868        3.3498936273      -23.4464454507
 O       -12.5337007156        4.0364912615      -22.7800328298
 C       -13.3445878302        3.4727862031      -24.9373997615
 C       -13.2947941247        0.8595794823      -23.3228291639
 C       -15.5003252803        2.0518423775      -23.2165462311
 C       -12.6889981644        0.1624266589      -16.2469059587
 C       -12.4810843475        2.6463690224      -15.9124695868
 C        -8.3091738970       -2.5214237665      -12.7765468791
 C        -7.7321100578       -0.6773398332      -11.1612919533
 C        -5.0148619404        1.4798017196      -17.4228034982
 C        -2.8891046303        2.0574990356      -15.9794731243
 C        -9.3475191996        6.4540974206      -14.9123012781
 C        -7.2422051931        7.9953174158      -15.1931687913
 C        -6.7593093842        6.8934412314       -8.1272653475
 C        -4.5243212839        8.0357630843       -8.2731644473
 C        -0.0485743501        2.7815540833       -7.0524790563
 C         1.5452587009        3.8004494237       -8.7360924052
 C         2.3973430752       -4.0478645102      -10.5033037501
 C        -0.0176963316       -3.1659389869      -10.8628587653
 C        -1.5953204160       -7.8367208161       -6.7221429439
 C        -0.9102023563       -6.2613729320       -4.7918579421
 C         0.4362851660      -12.9209157993       -2.5936722691
 C        -1.6386404154      -11.5291948809       -1.7413234348
 C         3.1932695148       -8.6927690821        3.1513271180
 C         3.5705678667       -6.4165712893        1.8368605503
 C         7.7847225542       -6.7776792941       -3.0656030594
 C         5.3846830809       -5.9722775472       -2.8269752870
 H         6.5699557117       -9.5087252188       -5.7153393921
 H         7.9575269476       -8.5056630866       -4.9764018284
 H         6.8061314661       -7.7258101641       -5.9904561859
 H         7.9342970258       -7.7163800258       -0.4968059947
 H         7.1776408628       -9.2891751177       -0.3531447384
 H         5.9446591797       -6.6899027241        1.0018186959
 H         6.9572027334       -7.8281416660        1.7310179687
 H         1.3811234518       -9.6008632437        1.9441900775
 H         2.4836452812      -10.5656830280        0.8256574752
 H        -0.0373509695       -9.2695840058       -0.0811097825
 H         0.0271812567      -10.8602814902        0.6600475922
 H         1.1139692240      -11.7153789529       -4.8385351734
 H         1.6723493970      -10.4675894898       -3.8608113815
 H         0.2056355995       -9.8888658983       -6.4560732673
 H         1.9624276058       -9.5492819424       -6.0511383097
 H         1.8316666715       -5.6018015433       -5.7284326964
 H         0.5354858713       -4.5492299075       -6.2093290401
 H         2.5094067499       -5.4104995008       -8.3945199872
 H         2.6558165853       -4.0113443717       -7.3151745861
 H        -0.0796009912       -1.0056328446       -9.8528843041
 H         1.0046346117       -0.4808288164      -11.0901117094
 H         1.9199715330        1.3132310581       -9.7032004364
 H         1.3069172018        0.6426593190       -8.2435245552
 H        -2.4699663371        3.9058883375       -7.6860398283
 H        -2.8685536153        3.4695860973       -9.3639708246
 H        -3.1136044850        5.7950062371       -9.9554066559
 H        -2.4860831326        6.2168816110       -8.3060599570
 H        -7.5515586495        6.7816634697      -10.7755730304
 H        -6.5134045088        5.4249866687      -11.1460068068
 H        -5.3285425388        6.5201590182      -12.9466536808
 H        -6.3230506310        7.7972300700      -12.7966427675
 H        -5.1962705232        6.0122436115      -15.6050536281
 H        -5.8224015424        6.7363860552      -16.9695752711
 H        -4.0632077742        4.8290665099      -17.5612988669
 H        -5.6688236179        4.1601995590      -17.8413244958
 H        -3.5839141082        1.2306842115      -13.3417331858
 H        -3.3606000914       -0.2802540558      -14.2394189690
 H        -5.3816306798        0.3564528451      -11.9406453211
 H        -4.5522333734       -1.1824988252      -12.3042363190
 H       -10.3665924189       -0.9749364538      -14.4638541952
 H        -8.9228533095       -1.6361247071      -15.0894664070
 H        -9.6657769353       -0.5763791428      -16.8499983287
 H        -8.3887838577        0.5272639502      -16.2965350190
 H       -11.9619963907        3.0235576472      -19.4282129882
 H       -13.4544300279        2.3649556461      -18.7809151076
 H       -12.9324398217        0.5422052309      -20.5736422268
 H       -11.8346947142        1.7361634054      -21.2651855987
 H       -12.3350213382        3.3855414559      -25.2861642873
 H       -13.6221882102        4.5240108267      -25.0582763581
 H       -13.9274346802        2.6908011670      -25.4103190584
 H       -13.7436944850       -0.0307643509      -22.9927309010
 H       -12.2804044282        0.9059212143      -23.1485760690
 H       -13.5640967696        0.8297655133      -24.3852046184
 H       -15.9504503691        3.0299152706      -23.1549064315
 H       -16.0783533660        1.3798081785      -22.5576966253
 H       -15.6642184449        1.7104102302      -24.1779198057
 H       -13.6600229020        0.2395052229      -16.7462730448
 H       -12.9066868230        0.0786240978      -15.1487049419
 H       -12.1720370706       -0.7204664125      -16.5090344630
 H       -11.9645633175        3.4931659912      -16.2322166442
 H       -12.7602701723        2.5201485124      -14.8442685897
 H       -13.4834959997        2.5426204759      -16.3800380540
 H        -8.1545698541       -3.0722750378      -13.7197455053
 H        -9.3491555501       -2.4851110778      -12.6048203875
 H        -7.9172488781       -3.1590111279      -12.0055830884
 H        -8.6443986821       -0.5422452079      -10.7479619213
 H        -7.1362216283        0.2299795562      -11.1945473255
 H        -7.1108657598       -1.3601990819      -10.5461761723
 H        -4.6620324171        0.4683220179      -17.5252493764
 H        -4.7489739182        2.1214115882      -18.3940323375
 H        -6.1131694467        1.4309669652      -17.3627566082
 H        -2.4472799020        1.1153532663      -15.9579925016
 H        -2.4862697637        2.6658614856      -15.1229533896
 H        -2.4948504495        2.4942276109      -16.8808279870
 H        -9.7352058274        7.4474544672      -14.7032796769
 H        -9.6638384880        5.6102263695      -14.2201982154
 H        -9.6155693089        6.1031270691      -15.9344023092
 H        -6.1268762225        7.9940616545      -15.1964243463
 H        -7.5587491974        8.6484477977      -14.3512072662
 H        -7.7050955378        8.4178341584      -16.0741340192
 H        -6.7901345647        6.5141071458       -7.1112584924
 H        -7.4890833888        6.3310425777       -8.7025862523
 H        -7.0832914676        7.8874941197       -8.2848968012
 H        -3.7019457594        8.1537721979       -8.9820863377
 H        -4.2120019703        7.8809801893       -7.2345002873
 H        -5.1150027969        8.9869694707       -8.4413387675
 H        -0.9072998023        2.1466870610       -6.8899938268
 H        -0.0640198225        3.7671764173       -6.4902029901
 H         0.8149474570        2.1749171795       -6.7317425267
 H         1.5649037363        4.7543692417       -8.2865291919
 H         1.7153991754        3.9753062185       -9.7272482042
 H         2.3536844197        3.2132379076       -8.3326221609
 H         2.1524664577       -5.0827045124      -10.4755017451
 H         3.2393519706       -3.9199672612       -9.9018791285
 H         2.4006252902       -3.7780874291      -11.5649245066
 H        -0.1686472919       -4.1941729373      -11.2473629770
 H         0.3382800229       -2.6277713403      -11.7150589226
 H        -0.9628296497       -2.9040902128      -10.2659301336
 H        -2.1734843050       -8.5780454886       -6.1383915324
 H        -1.4381304035       -8.2125890113       -7.6745231929
 H        -2.3279414069       -7.0331545311       -6.9203025234
 H        -1.5463782306       -5.4813171843       -5.2445732007
 H        -0.2089038574       -5.8650678196       -4.0753963782
 H        -1.5662638096       -6.7672415683       -4.1139759175
 H         1.3882738097      -12.8037649142       -3.1028034225
 H        -0.2677122482      -13.6155383891       -3.0474741713
 H         0.7232815718      -13.4205817945       -1.6384960894
 H        -1.9765972974      -10.5554248589       -1.9961158333
 H        -1.6219988838      -11.4722135834       -0.6417266958
 H        -2.3011941493      -12.2869092975       -2.1944807769
 H         3.8832925868       -8.3623265158        3.9476983708
 H         3.3037005818       -9.7272320087        2.8916233625
 H         2.2424758651       -8.4010284756        3.6705207534
 H         4.3366215775       -6.0821975310        2.5239446143
 H         2.5437320112       -6.2081242246        2.1371552057
 H         3.6101913983       -5.9724882487        0.8412401382
 H         7.9600929479       -6.1919787150       -3.9749187036
 H         8.5153970863       -7.5724058329       -3.1563648263
 H         8.2014575590       -6.2311004479       -2.1979165855
 H         5.8202154766       -5.1633618926       -2.2113070101
 H         4.4558660861       -6.2086117388       -2.3623889839
 H         5.1232088872       -5.5587816570       -3.7798769242
 Na        2.9281740162       -8.6258177126       -3.0196420293
 Na       -8.0408457373        3.0840116493      -14.3352390549
