232

 C       -19.0236568252      -10.7197945526        0.3760521468
 C       -18.1754658532      -11.6863470009       -0.5225940943
 O       -17.9732572817      -11.4611878670       -1.7169282784
 C       -17.6489604995      -13.0073083793        0.1478531405
 C       -16.0920228874      -13.0672235560       -0.3070846960
 O       -15.8128584531      -13.5176612734       -1.4179834904
 C       -15.0250806284      -12.6353689690        0.6734756157
 C       -13.7895760896      -12.0766530317       -0.0358699011
 C       -14.0050813115      -10.6081420156       -0.6478596180
 O       -15.0421183914      -10.0547147651       -0.2454991140
 C       -13.0106718764       -9.9758287313       -1.6598463470
 C       -13.4185903823      -10.5545448413       -3.0473228869
 O       -13.8578752999      -11.6698921762       -3.1199907928
 C       -13.3535092164       -9.7234605880       -4.3277624949
 C       -14.0549458931      -10.2439142848       -5.5687573856
 C       -15.4777780027       -9.8500414083       -5.7224141296
 O       -16.3250521253      -10.0446557028       -4.8237981516
 C       -15.9337455030       -9.1096561650       -7.1091016188
 C       -15.1878436853       -7.7762112479       -7.2808281673
 O       -14.3020211065       -7.5202738673       -6.4918863439
 C       -15.6000390182       -6.8604846008       -8.4249837049
 C       -14.4076928603       -5.8972881117       -8.8642253134
 C       -14.5880508568       -5.1370220372      -10.1274042157
 O       -15.6535108328       -4.7240236658      -10.5479924818
 C       -13.2232182732       -4.9097549726      -10.8929985322
 C       -12.0828965717       -4.2188140210       -9.9633695651
 O       -11.5117933377       -4.8054610671       -9.0298624381
 C       -11.6390117404       -2.8593900673      -10.5087467716
 C       -10.7003926187       -2.1333904257       -9.5177739468
 C       -10.2010271285       -0.7706957282      -10.0151682626
 O       -10.2593819435       -0.4631510558      -11.2021669518
 C        -9.5434847939        0.3941603461       -8.9766327539
 C        -8.0139632067        0.0496555510       -9.3214170353
 O        -7.4403011324       -0.8543627055       -8.7046249435
 C        -7.4368537000        0.7472092438      -10.6470412133
 C        -5.9622280907        0.2706403026      -10.9761181717
 C        -4.9332036255        1.4237953849      -10.9543123386
 O        -5.0436928221        2.4580821989      -10.3509776794
 C        -3.6725447673        1.1497608955      -11.9767194304
 C        -2.6545963740        0.4584215916      -11.0306099758
 O        -2.5716708550       -0.7736565592      -10.9217645376
 C        -1.6019957519        1.2581529016      -10.1757163940
 C        -0.6707746924        0.3375066158       -9.3831367904
 C         0.2215354399        1.0967925939       -8.3898912467
 O        -0.1630962485        2.0844581424       -7.7768493156
 C         1.5407524447        0.4537344434       -7.9373903843
 C         2.6863373213        1.4295196075       -8.2541573724
 O         3.4624920225        1.1979623907       -9.2178166314
 C         2.9705975478        2.8555597003       -7.4573519039
 C         4.1286333018        3.6949352072       -7.9346358918
 C         3.7748629897        4.3623875243       -9.2370252330
 O         2.7437461056        4.1433142679       -9.8149160456
 C         4.7977999566        5.3948846580       -9.8161568203
 C         4.9885716330        4.9881235913      -11.3129586155
 O         6.1457144029        4.7940903884      -11.7211071359
 C         3.7822180193        4.8482471725      -12.2712793366
 C         3.4945102365        6.0698448449      -13.2037536390
 C         4.0948470746        5.9660618752      -14.6529548252
 O         4.6682308989        4.9648565134      -15.1462292511
 C         3.9858936399        7.3203201077      -15.5632649216
 C         5.3900449394        7.3841082297      -16.1656576866
 O         5.5956313411        7.2007977700      -17.3517225481
 C         6.5153984286        7.6941477669      -15.2873293988
 C         7.7884525084        7.1260350883      -15.9909245510
 C         7.6314174544        5.5695924274      -16.1531588107
 O         7.2767990943        4.9214119437      -15.2161371281
 C         7.9043782379        4.7527444844      -17.6223306699
 C         9.2466294664        4.0373775807      -17.4135369751
 O        10.0799398930        4.2043352288      -16.5084701645
 C         9.5909952945        3.0594552163      -18.5870899922
 C        10.4980480594        1.8821308994      -18.1284198064
 C         9.8948538988        0.5615820333      -17.7592627208
 O         8.6841192689        0.3391587593      -17.9354498123
 C        10.7992993898       -0.5903953264      -17.2525445609
 C        10.6107079485       -0.2813867517      -15.6527676334
 O        11.2850610174        0.5635757195      -15.0818493145
 C         9.3852572855       -0.9627795511      -14.9827390603
 C         8.9120954759       -0.3557481464      -13.6743974025
 C         7.6837977757        0.5067841444      -13.8721090362
 O         7.8806108489        1.7051011034      -14.0824509301
 C         6.2436315390       -0.0507124419      -13.9717704261
 C         5.8119898219        0.4927797984      -15.4861362516
 O         5.6209252819        1.6902244020      -15.6510617587
 C         5.9311909874       -0.4655490229      -16.7082261555
 C         6.1051634985       -1.5947146344      -13.8217227122
 C         5.1502534113        0.5836546046      -13.1135692809
 C        10.2195268569       -1.9950617932      -17.5662046900
 C        12.2746324945       -0.5498367970      -17.6375786268
 C         6.7562247403        3.7595271139      -17.8573681512
 C         8.0342814156        5.7116211897      -18.7203078105
 C         3.0661389461        7.2233208834      -16.8336588115
 C         3.7301102351        8.5614934730      -14.7049988082
 C         4.0571574988        6.6891632784       -9.6742449290
 C         6.1259886595        5.5543757015       -9.0973855934
 C         1.4068911119        0.3606955912       -6.3726474318
 C         1.7271219203       -1.0361648101       -8.5297168051
 C        -3.8942578176        0.1217273230      -13.1363290381
 C        -3.1089585498        2.5051742342      -12.3509101979
 C        -9.8528520946        1.8417350016       -9.3669336018
 C        -9.8242701271        0.0616586970       -7.4929661996
 C       -12.7650759753       -6.4025677667      -11.2423064768
 C       -13.5772859110       -4.1089425913      -12.1947153429
 C       -15.7378757950      -10.1462914199       -8.2503615554
 C       -17.4411371078       -8.7372270223       -6.9142634619
 C       -13.0877781135       -8.4163462400       -1.5299295658
 C       -11.5683243038      -10.4609814260       -1.4177869969
 C       -17.8442882437      -13.0179380838        1.7209058483
 C       -18.4609692528      -14.0868215997       -0.4936239053
 H       -18.4001064501      -10.4378416412        1.2407723873
 H       -19.9563561688      -11.1522216554        0.6532497156
 H       -19.1972214522       -9.8239136614       -0.1855453962
 H       -14.6269123225      -13.5224219908        1.1915467930
 H       -15.4594082739      -11.9329115877        1.4252102349
 H       -13.4786600211      -12.7642180735       -0.9108662476
 H       -12.9190993139      -12.1991300288        0.6616756568
 H       -12.2706583103       -9.7366636517       -4.4690323248
 H       -13.6593378014       -8.6870420364       -4.0282339417
 H       -13.9872528817      -11.2532589018       -5.4857506323
 H       -13.4941140180       -9.9217642354       -6.4372514479
 H       -16.5754958855       -6.3731451372       -8.2357020855
 H       -15.8497874013       -7.5106039491       -9.2417707029
 H       -13.4964563046       -6.4933382803       -8.8145535437
 H       -14.2570817916       -5.0987114773       -8.0856130504
 H       -12.4119059845       -2.1442254188      -10.8256022003
 H       -11.1364411983       -3.0365178420      -11.4503897677
 H        -9.8492272559       -2.8184925690       -9.3219750726
 H       -11.2773608805       -2.2018475714       -8.5800314625
 H        -7.3574015591        1.8281753589      -10.5628858321
 H        -8.1444409301        0.5633183048      -11.4563207946
 H        -6.0099313688       -0.0447667432      -11.9655010700
 H        -5.5268998746       -0.5077638054      -10.3485776902
 H        -2.0742294020        2.0046308556       -9.4526020485
 H        -1.0656534040        1.8505238179      -10.8721523546
 H         0.0085306632       -0.2589958154      -10.0881122349
 H        -1.2018477662       -0.4190831738       -8.7704679889
 H         3.0767135398        2.5596779614       -6.3458868510
 H         1.9908669540        3.3525287156       -7.4056599067
 H         4.9830015404        3.0352596320       -8.2746610355
 H         4.6361051814        4.2451770310       -7.1916618427
 H         2.8641177357        4.6419968405      -11.7695950718
 H         4.0675593643        3.9877375091      -12.9198936195
 H         3.6653022749        7.0523080780      -12.7157621280
 H         2.3593147166        5.9362410288      -13.3464164829
 H         6.4283893650        7.2553470683      -14.2992320396
 H         6.6575321296        8.7464913222      -15.0771962878
 H         8.7521478552        7.2781765020      -15.2897589513
 H         7.9710826158        7.4760465249      -16.9372913254
 H        10.0908316940        3.6214023216      -19.3156899928
 H         8.6806740649        2.6645345591      -19.0791293501
 H        11.1101001718        2.2386803390      -17.2579468669
 H        11.0906608371        1.6255520550      -18.9620994795
 H         9.7305535851       -2.0112822604      -14.7930012640
 H         8.5369393884       -1.2099593408      -15.6070960641
 H         9.6720120720        0.2226348467      -13.2431135585
 H         8.7778225516       -1.1986587105      -12.9139595216
 H         6.8188608710       -0.3432210738      -17.2615239446
 H         5.0774288618       -0.4920465299      -17.4508871262
 H         5.9687531341       -1.4604866861      -16.3395370717
 H         5.0190462469       -1.7677241010      -13.8053049684
 H         6.4522097103       -1.8675619243      -12.7988628690
 H         6.5373095575       -2.2745889679      -14.5781992997
 H         4.6131427992       -0.0355587394      -12.3307130733
 H         4.3490736471        0.8394011821      -13.7759681457
 H         5.3676001194        1.5482953076      -12.4946432371
 H        10.5016366725       -2.3796175203      -18.5284280902
 H         9.1416627247       -1.8912242687      -17.5534304616
 H        10.6958409910       -2.7218903280      -16.8789689596
 H        12.2834404432       -0.4919275156      -18.7268017755
 H        12.6568245214       -1.5061104369      -17.2951809580
 H        12.8187198104        0.3104294750      -17.2676152297
 H         6.6146723516        3.1936310580      -16.9211364257
 H         7.0362266623        3.0055989894      -18.5375944819
 H         5.8614683552        4.1787411225      -18.2533646367
 H         8.8314351317        6.4579098000      -18.4268867824
 H         7.3251174753        6.3953796443      -18.9120599168
 H         8.4115714095        5.2256631357      -19.6581604610
 H         2.0115697865        7.3153700502      -16.5950527338
 H         3.4154981178        6.3358831927      -17.4985943879
 H         3.1889218443        8.0836010148      -17.5007109860
 H         3.9668790441        9.4822288952      -15.2476060259
 H         4.3427096681        8.5302739424      -13.7700738552
 H         2.6078903012        8.7065667517      -14.4628631377
 H         3.8408881874        6.8292994402       -8.5712816630
 H         3.1096023829        6.8913549567      -10.0511560465
 H         4.6566178833        7.5743263290      -10.0034654218
 H         6.6988726381        6.1466704203       -9.7703844982
 H         6.6143815377        4.6283344959       -9.1000513413
 H         6.0418516018        6.1510497887       -8.2320958836
 H         1.1752388595        1.3700641053       -6.0378954201
 H         2.2346216336       -0.0590829625       -5.9614073385
 H         0.5641388756       -0.1997958125       -6.0543480334
 H         0.8927784629       -1.7326185530       -8.2486396342
 H         2.5441100284       -1.4162628448       -7.9398428195
 H         2.0198517803       -1.1103828263       -9.6017706310
 H        -3.5790653866       -0.9083191005      -12.9927418964
 H        -3.3398772593        0.4120968051      -14.0524804116
 H        -4.9353896831        0.1680022772      -13.4098545728
 H        -2.1535938240        2.4014758647      -12.8786572356
 H        -2.7706304538        2.9542055807      -11.4572946637
 H        -3.8128745418        3.0889911418      -12.9226448061
 H       -10.7213053101        2.1890867859       -8.8889073918
 H       -10.0133025566        1.7471806295      -10.4770419809
 H        -9.0161274949        2.4925449622       -9.1102598970
 H       -10.9293746473       -0.1021118210       -7.3011910723
 H        -9.4916064240        0.8840037493       -6.8617021201
 H        -9.2896497986       -0.8080592458       -7.1239432858
 H       -11.9505588753       -6.3634199548      -11.8722337735
 H       -13.6131349311       -6.9483449769      -11.6398404473
 H       -12.4463272163       -6.7815958314      -10.3150793148
 H       -14.2118482077       -4.6724615549      -12.8918906464
 H       -12.7067124530       -3.7690727903      -12.7638881175
 H       -14.1001048177       -3.1527517391      -11.9989350588
 H       -14.7299423042      -10.3373440059       -8.1029780384
 H       -15.7120504768       -9.6096278843       -9.1918962489
 H       -16.4678080717      -10.9963765704       -8.3548264352
 H       -17.6064630775       -7.9623074629       -6.0927005990
 H       -18.0132289369       -9.6091256653       -6.5331057518
 H       -17.8470271938       -8.3808049871       -7.7905082078
 H       -14.1648552759       -8.0841583833       -1.6911911651
 H       -12.4794989580       -7.9196820219       -2.2801529438
 H       -12.8364032295       -8.0458008261       -0.5463971837
 H       -11.4479850817      -11.5602017705       -1.5351942580
 H       -11.1909987844      -10.3395105817       -0.4102546155
 H       -10.7829584383      -10.2126411247       -2.2134550100
 H       -17.5990678263      -12.1128688851        2.3306202895
 H       -17.3774778924      -13.8752895204        2.1668205872
 H       -18.8540063213      -12.9665886815        1.8051150156
 H       -19.4496496832      -14.1316369534       -0.0210832831
 H       -18.0370906583      -15.0789008376       -0.2681219756
 H       -18.5901871603      -13.9801706533       -1.6054780668
 Na      -16.0842666690      -11.3847200781       -2.8447721332
 Na        6.2993550737        3.3466721201      -14.0136902338
