232

 C         6.8781551813       -8.9923704241       -5.1511413531
 C         5.8918909625       -8.3855852820       -4.2113527408
 O         4.6843079143       -8.4875168853       -4.3228738634
 C         6.4362092513       -7.6734453409       -2.8747354158
 C         6.0464408209       -8.5382464064       -1.5867382057
 O         4.9831739091       -9.1134192621       -1.4313412386
 C         6.9702908394       -8.4841941048       -0.3939166802
 C         6.2403182204       -7.7799498721        0.8050125579
 C         4.8924518003       -8.5094933823        1.2348752959
 O         4.8769456691       -9.7179257332        1.4038992781
 C         3.4734680947       -7.6920062015        1.4636113683
 C         2.4696978464       -8.4613685482        0.4370261710
 O         2.1260412408       -8.0217776830       -0.6413574112
 C         2.1538756087       -9.9171119528        0.6970849017
 C         0.9229549133      -10.3910524547       -0.0494613045
 C         1.2079412269      -10.9752273116       -1.4432672006
 O         2.3157269218      -11.1663478528       -1.8670773010
 C        -0.1021372440      -11.3913072250       -2.4035206134
 C         0.0290769168      -10.2584444659       -3.5054299067
 O        -0.6448289263       -9.2869636393       -3.4290744859
 C         0.9405735838      -10.6723841775       -4.6255361150
 C         1.0689990139       -9.6026557895       -5.6634135150
 C         0.9124478585       -8.1006674365       -5.0807000035
 O         1.6672965423       -7.7142421518       -4.1609852607
 C        -0.0248538485       -7.0351737303       -5.6443808367
 C         0.8574873484       -6.4288054549       -6.8870137608
 O         0.9834823994       -6.9479073155       -7.9623181289
 C         1.8144692450       -5.2427751486       -6.5289956372
 C         2.3445254378       -4.6439084687       -7.7865941122
 C         1.1679085719       -4.0425304601       -8.5665888119
 O         0.0338698657       -4.1034658590       -8.1115724728
 C         1.3412977708       -3.2157000916       -9.9770786678
 C         1.6842211517       -1.7843673470       -9.4296025590
 O         2.8182774587       -1.5321421180       -9.1325834787
 C         0.4727115105       -0.7298487748       -9.0452351244
 C         0.7949753296        0.6696570406       -9.6197651757
 C        -0.2335158125        1.7660550451       -9.6291693956
 O        -1.1998372438        1.6680471085      -10.3907821676
 C         0.0362939241        3.0242218789       -8.7336291762
 C        -1.0650210730        4.1233947135       -9.0748383671
 O        -0.7091532139        5.0935867662       -9.7753748520
 C        -2.5548130485        4.0628449088       -8.7651218299
 C        -3.0374876569        5.4732314937       -8.9010249561
 C        -4.4349498861        5.6059984346       -8.3566559137
 O        -4.9888967072        4.8375311435       -7.6210117623
 C        -5.2086742889        6.8551029930       -8.9884534557
 C        -5.4124851912        6.7374092469      -10.4617223486
 O        -4.5337603771        7.1883694710      -11.2622887459
 C        -6.6180091380        5.9593403561      -11.0854027815
 C        -7.3996588162        6.7570630083      -12.2503268830
 C        -7.8276927256        5.8034334528      -13.3666219317
 O        -8.0145247560        4.6384283598      -13.1202788425
 C        -8.0506477629        6.3903539268      -14.8656243343
 C        -7.2472366801        5.5123273443      -15.8775632378
 O        -7.8418368541        4.6415972747      -16.5189873696
 C        -5.7628478009        5.8051541763      -16.1034187027
 C        -4.9259699042        4.5676915453      -16.6447180984
 C        -5.0462150797        3.4615195779      -15.5524196437
 O        -5.7842165727        3.7997366951      -14.6453651641
 C        -4.3296115182        2.0616708750      -15.7223677975
 C        -5.1355386173        1.0234120177      -14.9208771672
 O        -6.3423289920        0.8923855189      -15.1176107979
 C        -4.3997419244        0.1059738916      -13.8701012096
 C        -5.2772076294       -0.2005023270      -12.6659625806
 C        -6.5481889939       -0.8993869358      -13.1316890356
 O        -6.5436072553       -1.7863306942      -13.9378915259
 C        -7.9685510170       -0.5910856639      -12.4460595633
 C        -8.5612440924        0.3163517005      -13.6091603969
 O        -8.7316192834        1.5160739447      -13.3699472575
 C        -9.1873547019       -0.2691108920      -14.8601800942
 C        -9.3142112195        0.5945970402      -16.1761956301
 C       -10.5643137343        1.6649579734      -16.0928699741
 O       -10.4003934265        2.6913728909      -15.4729240918
 C       -12.0814208867        1.1298659661      -16.5945122094
 C       -11.7732301344        1.1505314884      -18.1310221415
 O       -11.0671510033        0.2631199457      -18.5997330635
 C       -12.4192045503        2.1532895314      -19.1410486755
 C       -12.7851991220        1.5434807256      -20.4901659495
 C       -13.8858741336        2.3102667998      -21.2080152471
 O       -14.5377447818        3.1014053232      -20.6056834516
 C       -14.0016836620        2.2101603513      -22.7843264317
 C       -13.0280562980        3.3652872597      -23.2502272202
 O       -12.1211692148        3.5597464254      -22.4756278552
 C       -12.9973833518        4.1091343080      -24.6303588674
 C       -13.4230535308        0.9166924436      -23.3924740196
 C       -15.4905773561        2.3948567566      -23.1746343127
 C       -12.3964235904       -0.2944980664      -16.0907893513
 C       -13.2194279676        2.0594567256      -16.1335124565
 C        -8.6367380771       -1.9932197632      -12.1921459035
 C        -7.9624820513        0.1343649614      -11.0789908363
 C        -4.4906145051        1.6714287515      -17.2882573768
 C        -2.7605568531        2.2423061320      -15.3971145391
 C        -9.5600724901        6.4127104669      -15.1342324944
 C        -7.5069295424        7.8365548461      -14.9682557647
 C        -6.5427094971        7.1322580420       -8.1608663389
 C        -4.2912268422        8.0859327866       -8.6469822336
 C        -0.0238655027        2.4352786574       -7.2781184862
 C         1.3673779295        3.6882597648       -9.0256447421
 C         2.6420030093       -3.8122998582      -10.7011962352
 C        -0.0037827666       -3.2440055775      -10.8372662131
 C        -1.3407192241       -7.4093960541       -6.3495354949
 C        -0.2891507551       -5.9378443562       -4.4796153673
 C         0.0302340129      -12.8334485534       -2.9049028543
 C        -1.4583498518      -11.2736847984       -1.6907565475
 C         3.2170584578       -7.8732763186        2.9148306679
 C         3.5209106109       -6.1729952309        1.1648190913
 C         7.8806414654       -7.2476046615       -3.0813722209
 C         5.6548539783       -6.3090728705       -2.5241109541
 H         6.3722568107       -9.0729373600       -6.0594524272
 H         7.1516303740      -10.0052816048       -4.8125933968
 H         7.7069553721       -8.3240674094       -5.5169322722
 H         8.0134926264       -8.0752139993       -0.5999204158
 H         7.1307692181       -9.5695654273       -0.1240022477
 H         6.1043321144       -6.7515275298        0.6233704684
 H         6.8484327897       -7.9110673959        1.7091810673
 H         2.0542167196      -10.3131934797        1.7879999392
 H         2.9539145393      -10.4822110509        0.1107721994
 H         0.1994269248       -9.5717331482       -0.1012461643
 H         0.5156372517      -11.1047199265        0.5872756799
 H         0.5855267719      -11.5706908040       -5.1352417903
 H         1.8326042280      -11.0511121242       -4.2327190209
 H         0.3178461976       -9.8052464921       -6.4138432016
 H         2.0914756869       -9.7019962921       -6.0094308374
 H         2.6445644983       -5.3914603931       -5.8148133942
 H         1.3263696440       -4.5431878784       -5.9368948975
 H         2.9688470003       -5.4956974537       -8.2452865018
 H         3.0158571863       -3.7448656433       -7.6685236048
 H         0.3548510104       -0.6683451813       -7.9990882940
 H        -0.4318476996       -1.1741013002       -9.4728766584
 H         1.2374543344        0.7328137097      -10.6241759201
 H         1.6420601546        1.0616254021       -8.9911957400
 H        -2.8785926068        3.6402909820       -7.7394062088
 H        -2.9623744946        3.5224565372       -9.5316867553
 H        -3.0147022491        5.8659827258       -9.8957628208
 H        -2.3566366487        6.0925900212       -8.2945225123
 H        -7.2725378403        5.5052630338      -10.3543725349
 H        -6.0808220436        5.2177642206      -11.6154657430
 H        -6.9188186831        7.6201186362      -12.5010414914
 H        -8.3352489460        7.0198748990      -11.7626211171
 H        -5.2323669371        6.1015856938      -15.1591391415
 H        -5.6367656852        6.5959073022      -16.7959792408
 H        -3.9381970642        4.8922435918      -16.9118553474
 H        -5.2997125108        4.1648467460      -17.5858625960
 H        -3.5284222609        0.7122421686      -13.4032880405
 H        -3.9018930464       -0.6567604565      -14.4852506622
 H        -5.5120420787        0.7274018709      -12.0244833492
 H        -4.7132865116       -0.8566371285      -12.0122047720
 H       -10.2062745193       -0.4817545278      -14.4855830508
 H        -8.8508651367       -1.3265579768      -15.0653594342
 H        -9.6109198174       -0.0040549759      -17.0420670827
 H        -8.4317549846        1.1794517329      -16.3313862362
 H       -11.6427760627        2.9289655071      -19.2855650998
 H       -13.2976384728        2.6430071506      -18.7215656894
 H       -13.0421942174        0.5006956190      -20.3357284645
 H       -11.8938653428        1.4960788810      -21.0528535020
 H       -12.4789261986        5.0468156656      -24.3908205032
 H       -13.9690879857        4.4229058277      -24.9528052975
 H       -12.3420791648        3.5629783556      -25.3278715818
 H       -13.5797398607        0.1145527546      -22.6900568134
 H       -12.3672117787        1.0654798016      -23.7016829730
 H       -13.9549750814        0.7765882348      -24.2674415997
 H       -15.8802488935        3.3776419440      -23.0039904210
 H       -16.0512747189        1.6926578298      -22.6094556784
 H       -15.6571086820        2.2737428082      -24.2466029034
 H       -13.4549937723       -0.6102603740      -16.2617742932
 H       -12.0918122172       -0.3013638737      -15.0809841033
 H       -11.7129228886       -1.0261326417      -16.5987270614
 H       -12.8905320684        3.1497047634      -16.1715754339
 H       -13.4383842792        1.7944387737      -15.1052072999
 H       -14.0220637914        1.9697904021      -16.8841069507
 H        -8.7928253274       -2.5137553161      -13.1023722917
 H        -9.5891130553       -1.9146619960      -11.6476779467
 H        -8.0032759397       -2.6291562509      -11.5345335749
 H        -9.0093424279        0.2780141460      -10.5951809473
 H        -7.5136798357        1.0749134053      -10.9367531734
 H        -7.5113822535       -0.6007397141      -10.5083999854
 H        -4.2098938507        0.5655212559      -17.5040210987
 H        -3.8745525374        2.3133457917      -17.8325182867
 H        -5.5736453488        1.8576386877      -17.5852726653
 H        -2.0162381447        1.5460642999      -15.8350947723
 H        -2.4985645017        2.2012843657      -14.4143695115
 H        -2.6612311879        3.2619111622      -15.6438234158
 H       -10.0770426899        6.9065082268      -14.2935689351
 H        -9.8420747691        5.4018839464      -15.4257113624
 H        -9.7908829158        7.1639791600      -15.8973930907
 H        -6.4554240894        7.9466584364      -14.7881202794
 H        -8.0749746076        8.5141786748      -14.3047307413
 H        -7.5802430991        8.1825326925      -16.0142078107
 H        -6.3151252058        7.6890829606       -7.2511060103
 H        -7.0709321327        6.2026353053       -7.9605337073
 H        -7.1462183640        7.8154046103       -8.7346765027
 H        -3.1932917242        7.8912045315       -8.7164213394
 H        -4.4518673702        8.2929428117       -7.5910478873
 H        -4.6337091011        8.9240732872       -9.2466061672
 H        -0.8717224452        1.6699646468       -7.2793262261
 H        -0.2876918164        3.2245175759       -6.5867937415
 H         0.8370813537        1.8762458217       -6.9372013092
 H         1.5767298327        4.3964910774       -8.2848983245
 H         1.3138726910        4.1592903843       -9.9790104724
 H         2.1633747756        3.0698856511       -9.0995568383
 H         2.6213493442       -4.8292894012      -10.4183441052
 H         3.4644440180       -3.1870412040      -10.3449473023
 H         2.6556278401       -3.6988707067      -11.7576122733
 H        -0.3321068510       -4.2883074928      -10.8841523688
 H         0.1909750572       -2.7267984844      -11.8678477515
 H        -0.6876186735       -2.5636298456      -10.4232354437
 H        -1.8438003064       -8.3219642747       -6.0783367706
 H        -1.0543157786       -7.5440257887       -7.4271005220
 H        -2.0944354986       -6.6431781421       -6.3048984871
 H        -0.7524844070       -4.9889192777       -4.7969406183
 H         0.6541845706       -5.6498385910       -3.9562071887
 H        -0.9698384985       -6.4205202940       -3.7710323076
 H         1.0015057394      -13.0965324403       -3.3446397830
 H        -0.7838367688      -12.9788660649       -3.6155340190
 H        -0.1165013943      -13.5321996959       -2.0555480070
 H        -1.9790915102      -10.3116468087       -1.5261547698
 H        -1.3643831573      -11.8674277300       -0.8143156321
 H        -2.1272966412      -11.8596733481       -2.3590004761
 H         4.1589163874       -7.5191894845        3.3961000025
 H         3.1754878322       -8.9628610377        3.1581602553
 H         2.2919064484       -7.4091273503        3.2601926492
 H         3.8500097977       -5.5094359129        1.9673104385
 H         2.4769027386       -5.9782450039        0.9474282206
 H         4.1897659187       -6.1520830190        0.3302135939
 H         8.1182569991       -6.6138897802       -3.9629019598
 H         8.5628433407       -8.0805883340       -3.2176380511
 H         8.3604522131       -6.6739605855       -2.3378046120
 H         6.0540347580       -5.9006275160       -1.6411196099
 H         4.5724598033       -6.4477094659       -2.4188486739
 H         5.7215861107       -5.5399828998       -3.3198454214
 Na        2.9158768969       -8.7246086502       -2.6776161928
 Na       -8.0724847829        2.9697669892      -14.8641779155
