232

 C         6.7751543940       -9.3639252148       -5.0449397135
 C         5.9025322199       -8.4621895566       -4.0904997990
 O         4.7190139214       -8.4412440078       -4.2572522371
 C         6.4742590325       -7.8016820527       -2.8783320607
 C         6.1194794930       -8.7583073067       -1.5505720133
 O         5.2664618455       -9.6145584366       -1.6383124579
 C         7.0079621891       -8.6800480161       -0.2688761031
 C         6.2168663789       -7.7270508510        0.7560202437
 C         4.8912959819       -8.4791989923        1.1863395329
 O         5.0336309634       -9.6497603561        1.5030078541
 C         3.4734760468       -7.6588096077        1.2422167659
 C         2.4854038232       -8.4464741844        0.2655955409
 O         2.1889427895       -7.9259311639       -0.7931183735
 C         2.2885424387       -9.9434683824        0.5995786616
 C         1.0500339943      -10.6460991177       -0.0418031321
 C         1.2990200115      -10.9912139544       -1.4508829552
 O         2.3739945936      -11.1219147607       -1.9778159449
 C        -0.0127889828      -11.3185670704       -2.3248588868
 C         0.1271117141      -10.1448879089       -3.4476486265
 O        -0.4326702022       -9.1006098944       -3.2176439481
 C         1.0538060014      -10.4908325550       -4.5071631182
 C         0.9818688411       -9.3152271001       -5.5010775479
 C         1.1216510511       -7.8632824682       -4.9877785036
 O         2.1212773933       -7.6566447023       -4.2647074004
 C         0.1696160689       -6.7279970779       -5.5639698264
 C         1.0754935304       -6.3225847583       -6.7804751453
 O         1.0778222327       -6.9854090138       -7.8019242749
 C         2.1072664922       -5.2183699014       -6.5324328588
 C         2.4748486875       -4.4892453123       -7.8344596048
 C         1.2479192541       -4.0583871280       -8.6629217436
 O         0.1502050378       -4.4101869180       -8.2959805141
 C         1.3334489515       -3.1685490665       -9.9797184288
 C         1.6821211213       -1.7350130042       -9.4290035823
 O         2.8328201256       -1.3982856853       -9.2825660731
 C         0.5752872079       -0.6889129504       -9.1743464350
 C         0.6952009016        0.4437214847      -10.2289855960
 C        -0.2713489848        1.5972095196       -9.8160021598
 O        -1.4489516095        1.5110023322      -10.2381801475
 C         0.0947373696        2.8564829959       -8.7788112361
 C        -0.8927895947        4.1147659731       -9.2639975031
 O        -0.4304635253        4.9059025286      -10.0962186574
 C        -2.3104706654        4.2589791844       -8.5991132442
 C        -3.0172683092        5.5563319633       -8.9824054076
 C        -4.5147344992        5.6898207853       -8.5561912118
 O        -5.1669055720        4.8306357561       -8.0618513301
 C        -5.3640804330        6.9194094829       -9.1373000702
 C        -5.6022225438        6.4361922690      -10.6171172814
 O        -4.8838849714        6.9317386527      -11.5233064716
 C        -6.9404104104        5.6717816589      -11.0426485223
 C        -7.5792449789        6.4716161456      -12.1637831106
 C        -7.7799265656        5.7142585901      -13.4437384620
 O        -7.9713852185        4.5384997065      -13.3044012521
 C        -8.0595362936        6.5135507043      -14.6784157613
 C        -7.1574504549        5.8102774675      -15.8678941273
 O        -7.6651314016        4.9126248133      -16.4696272567
 C        -5.5901477831        6.1362848383      -16.0482548229
 C        -4.9151005685        4.7632331145      -16.3771341512
 C        -5.1654474467        3.5559520687      -15.5053732608
 O        -5.7547365994        3.6325080993      -14.4393595198
 C        -4.3115078657        2.2608735950      -15.6347818257
 C        -5.1776036680        1.0646361903      -14.9502231326
 O        -6.3871850370        1.1550819147      -15.0514323143
 C        -4.5789790961        0.0871738773      -13.9993104876
 C        -5.5967550669       -0.2054429693      -12.7629926223
 C        -6.8224095993       -1.0113570249      -13.0206116304
 O        -6.8560932097       -2.0172685027      -13.7224338005
 C        -8.1172172557       -0.4311636833      -12.4036033325
 C        -8.7518791821        0.4364788860      -13.4951868436
 O        -9.0687142931        1.6188729439      -13.4180889941
 C        -9.2690768777       -0.3193779254      -14.7739462732
 C        -9.4626747917        0.5354902287      -16.0458395132
 C       -10.5985579855        1.4970261450      -16.0373453238
 O       -10.4056413058        2.6804857031      -15.9027873668
 C       -12.0461581292        0.9773423197      -16.4636805448
 C       -11.9112693450        0.8900220663      -18.0477043759
 O       -11.2045418216       -0.0354473924      -18.4692163989
 C       -12.7640125026        1.8087033118      -18.9336761120
 C       -12.7539573000        1.4961138409      -20.5002564361
 C       -13.8111120036        2.3433551822      -21.1146138276
 O       -14.5937932256        2.9719511775      -20.4503400027
 C       -13.8035825205        2.4178555501      -22.7055889383
 C       -12.6727544128        3.4499893792      -23.1925242661
 O       -11.5729157719        3.4754857847      -22.7185758482
 C       -13.0721207438        4.3404190868      -24.4040616384
 C       -13.5393696157        0.9500083198      -23.2825286937
 C       -15.2010316207        2.9543001872      -23.1592832865
 C       -12.3738123056       -0.4389283139      -16.0418839588
 C       -13.1402084831        1.8747329646      -15.9186813426
 C        -9.1387729148       -1.6225662095      -12.1105877364
 C        -7.8193918357        0.1760121070      -10.9413560624
 C        -4.2898907735        1.8597412128      -17.1426498376
 C        -2.8557267541        2.5681785966      -14.9658791763
 C        -9.5286796678        6.2467049896      -14.9785570381
 C        -7.7503043471        8.0338986227      -14.5369218039
 C        -6.7205388875        7.1136386488       -8.3278466385
 C        -4.5848108954        8.3009756671       -9.1124869251
 C        -0.2557978119        2.5485286493       -7.2789155287
 C         1.5362471350        3.2666086334       -8.9425931096
 C         2.6649751109       -3.6680463826      -10.6716132215
 C        -0.0891962454       -3.2008515471      -10.7903415656
 C        -1.1715900524       -7.2433698525       -5.9824107429
 C        -0.1135785864       -5.6778086414       -4.4778323177
 C        -0.0051945964      -12.7671420269       -2.9279644133
 C        -1.3718848480      -11.1310745651       -1.6842102382
 C         2.8436894053       -7.7941076630        2.6476022657
 C         3.6368495292       -6.2737562535        0.6407635445
 C         7.9645229030       -7.5632346083       -2.9312257146
 C         5.6797719763       -6.4628978820       -2.7043539358
 H         6.4746429363       -9.7451303742       -5.9862077248
 H         7.1769712868      -10.1637680471       -4.3880158164
 H         7.5568737331       -8.6719675818       -5.4404624932
 H         7.9730076570       -8.2113628494       -0.5229063828
 H         7.1143425231       -9.6809946046        0.1835438198
 H         6.0973648944       -6.6977440465        0.3482597072
 H         6.8389775827       -7.7444084014        1.7055855487
 H         2.2200167886      -10.0795655132        1.6594339398
 H         3.1115662384      -10.4545603287        0.1983826302
 H         0.1109015928      -10.0895519717        0.2210617518
 H         0.8787640964      -11.6203253617        0.5250711936
 H         0.8528101123      -11.5064373815       -4.9762336581
 H         2.1134413652      -10.6802960772       -4.1463955225
 H        -0.0340838478       -9.3065763975       -5.9966747471
 H         1.7851896486       -9.4423230921       -6.2523691756
 H         3.0106926737       -5.7295475898       -6.0423044086
 H         2.0352402921       -4.4917802487       -5.7708543776
 H         3.1407593165       -5.1013845585       -8.5050717534
 H         2.9431982665       -3.6392101435       -7.4741981171
 H         0.7025350954       -0.3220531039       -8.2212718180
 H        -0.4906115987       -1.0416780266       -9.1743892644
 H         0.2407718770        0.0434123962      -11.1419120681
 H         1.6411263923        0.9114634393      -10.4875816904
 H        -2.1183315209        4.1249337090       -7.5130505655
 H        -2.9207924109        3.3792339784       -8.9186561050
 H        -2.9772504288        5.7102511801      -10.0943341735
 H        -2.4945172191        6.4967009242       -8.6805201458
 H        -7.6646010900        5.6071748242      -10.1431488530
 H        -6.7207019957        4.6761728656      -11.3756648446
 H        -6.9465842518        7.3395671142      -12.2763391601
 H        -8.5893676908        6.8454861006      -11.8570751700
 H        -5.1617846023        6.5692775532      -15.1930163711
 H        -5.5455197444        6.8207649526      -16.9044338911
 H        -3.7637288026        4.6879663324      -16.3616707593
 H        -5.2422368708        4.5854248370      -17.4004143432
 H        -3.7252701164        0.6002746545      -13.5767568456
 H        -4.1679608372       -0.8435783980      -14.4236452292
 H        -5.8780336893        0.6543355086      -12.1785436653
 H        -5.0102748435       -0.7923020429      -12.1079881054
 H       -10.2133268430       -0.8162048986      -14.5282264259
 H        -8.6441546258       -1.1817226404      -15.0563126763
 H        -9.7967582523       -0.0252493089      -16.9144568264
 H        -8.6397798436        1.1285955533      -16.2647300041
 H       -12.3505107027        2.7514515622      -18.7786373452
 H       -13.7641001714        1.8597436556      -18.4712473996
 H       -12.8554673974        0.3912818945      -20.7678848877
 H       -11.6854429185        1.7708709151      -20.7979889727
 H       -12.3070379998        5.0364162653      -24.6281038409
 H       -13.9996159648        4.8412663232      -24.1141935494
 H       -13.2458724561        3.5894386238      -25.2335624774
 H       -14.5250646951        0.4745448332      -23.1012812556
 H       -12.7594696420        0.2602504620      -22.8232376265
 H       -13.2895041202        1.1566254186      -24.3112387051
 H       -15.3989876937        3.8966900897      -22.5804438109
 H       -16.0738740601        2.2951008557      -22.8633500393
 H       -15.2718859587        3.1773931631      -24.2163919781
 H       -13.2542792061       -0.8261074457      -16.6215265274
 H       -12.4785720289       -0.5397871773      -14.9775592986
 H       -11.5170195079       -0.9978801273      -16.4001989325
 H       -13.1796972807        2.8514531316      -16.3297185404
 H       -12.9914608007        2.0441299682      -14.8611864879
 H       -14.0794149298        1.4035285802      -16.2468468283
 H        -8.9899205895       -2.4888439013      -12.7666553364
 H       -10.1382455167       -1.2286766348      -12.2845742112
 H        -9.1030325238       -1.9121655392      -11.0110790389
 H        -8.8344124141        0.4234852044      -10.4847616476
 H        -7.3524749070        1.1509062361      -10.8993018642
 H        -7.4060102013       -0.5373795514      -10.2464620244
 H        -3.5484581561        1.0933636832      -17.2961434236
 H        -4.0059885442        2.6345993158      -17.7524768528
 H        -5.2615926228        1.4920790752      -17.3677052389
 H        -2.4541266926        1.5702738292      -14.5736173672
 H        -2.8435668369        3.1624650807      -14.0949911296
 H        -2.1233707274        2.9544024687      -15.6954166117
 H       -10.0892130572        7.0867604393      -14.6751920130
 H        -9.8678359550        5.3210237026      -14.4479314571
 H        -9.6139791683        6.1897414252      -16.0545358332
 H        -6.8057739072        8.2470684056      -14.0886499624
 H        -8.5719295462        8.4748222192      -13.9312296301
 H        -7.6727135851        8.5668611066      -15.4602108445
 H        -6.4560955286        7.5365414959       -7.3242574545
 H        -7.3063173769        6.1715022687       -8.2627822815
 H        -7.2264178810        7.9350650811       -8.7108121128
 H        -3.9488490743        8.4602009080       -9.9835998411
 H        -3.9301379126        8.3201812215       -8.2857253102
 H        -5.3427462103        9.0487754880       -8.9191719045
 H        -1.3580939395        2.3355838466       -7.2413004293
 H        -0.0448393706        3.3488954886       -6.5747783816
 H         0.2869611791        1.7173044169       -6.9721969393
 H         1.7006185027        4.2255433427       -8.4069776939
 H         1.9510608536        3.3324217578      -10.0117575996
 H         2.2154939106        2.5900872179       -8.4348308243
 H         2.5159560833       -4.6296708040      -11.0931267480
 H         3.3785460949       -3.5585345995       -9.8603217915
 H         3.1736647519       -2.8752489638      -11.2813058524
 H         0.0553840765       -3.9873218168      -11.5197703389
 H        -0.3984846010       -2.2086150257      -11.2560549582
 H        -0.9448922360       -3.4179627708      -10.2080042011
 H        -1.6452557742       -7.8512168913       -5.1588313163
 H        -1.0528649916       -7.9854194647       -6.7594144321
 H        -1.8530547000       -6.4027292301       -6.2594718174
 H        -0.5585366353       -4.7862834588       -4.9491748982
 H         0.7960477738       -5.2467209197       -4.0748793915
 H        -0.7984852889       -6.0433763923       -3.7757830607
 H         0.9560544667      -12.9864691690       -3.3335768913
 H        -0.6540387082      -12.8641819868       -3.7451800690
 H        -0.2572545688      -13.5104575694       -2.0837404044
 H        -1.3949282294      -10.1529744556       -1.2820341975
 H        -1.5488944093      -11.9018190741       -0.9677553355
 H        -2.2658233179      -11.1710685120       -2.3741370408
 H         3.4557323508       -7.1603520168        3.2986356416
 H         2.9330349669       -8.7988230801        3.0140896577
 H         1.7932655063       -7.5547598263        2.5011593954
 H         4.5517375747       -5.7987735001        1.0103127249
 H         2.7661581624       -5.7876154331        1.0674975312
 H         3.6729283665       -6.4750973298       -0.4069588917
 H         8.2064128784       -6.8360291600       -3.7407006235
 H         8.6827531816       -8.3191296311       -3.0865344297
 H         8.3495905103       -6.9772219354       -2.1336964239
 H         6.1109143573       -5.8373067545       -1.9216213952
 H         4.6474009100       -6.6803314283       -2.4578920618
 H         5.7009147697       -5.8071412340       -3.6194480303
 Na        3.0738911970       -9.1744995480       -2.6014500916
 Na       -8.4698991156        3.2133763300      -15.0165608410
