232

 C         7.1042144873       -9.4497755141       -4.9127264080
 C         5.9865918756       -8.7674124455       -4.1430649238
 O         4.8128618245       -8.6911762056       -4.4604120773
 C         6.4959303653       -7.9534250433       -2.8555341535
 C         6.1514628804       -8.8804917917       -1.5856073719
 O         5.2713452983       -9.7080141473       -1.5954386856
 C         6.9819570879       -8.7212845288       -0.2643573489
 C         6.3128398158       -7.7334547070        0.6525041273
 C         5.0113977160       -8.3515126748        1.2232444899
 O         4.9326844351       -9.4105468607        1.7939670612
 C         3.6370900516       -7.7093453335        1.0495275333
 C         2.7991987948       -8.7626013563        0.1308129261
 O         2.2505140581       -8.3357213628       -0.8874310742
 C         2.4753703415      -10.1378036628        0.6475809489
 C         1.0471732262      -10.4999278200        0.1119300009
 C         1.1317673064      -10.9826010274       -1.3749197985
 O         2.2528024569      -11.3699825410       -1.8110017845
 C         0.0041070833      -11.1602663952       -2.3183228465
 C         0.1549387234      -10.1531562336       -3.4031309923
 O        -0.3873537212       -9.0394677222       -3.2718081487
 C         1.0229087433      -10.3836203083       -4.7190145136
 C         1.0614734256       -9.1964035210       -5.6606444437
 C         1.0844772237       -7.8569846378       -4.8514268324
 O         1.7984915668       -7.7490664133       -3.9045040013
 C         0.3203636274       -6.5516465826       -5.4304887890
 C         1.2239442148       -6.2702953101       -6.7078331767
 O         1.2172031177       -7.0850349771       -7.6471927427
 C         2.1695348696       -5.1656008293       -6.6300762847
 C         2.5214813531       -4.4680081020       -7.9757055103
 C         1.2279260367       -3.9755304136       -8.7051097757
 O         0.1402298150       -4.2557704568       -8.2536676405
 C         1.4132794757       -3.0219752867      -10.0332239944
 C         1.7881342473       -1.5919731202       -9.4280709209
 O         2.9303378762       -1.2805142794       -9.1959882873
 C         0.5434071615       -0.6195182266       -9.2996898799
 C         0.5285871991        0.6025616076      -10.2423282425
 C        -0.6126224049        1.6520916605       -9.7940232869
 O        -1.7518976229        1.4235612560       -9.9803870174
 C        -0.0936926863        2.7711191549       -8.8599863045
 C        -0.8207043894        4.0999479287       -9.3080885145
 O        -0.4007577718        4.7178779468      -10.2413416614
 C        -2.2392008046        4.5025789088       -8.6270593256
 C        -2.8788773523        5.7041026567       -9.2316210312
 C        -4.3826873485        5.6543238865       -8.7945158893
 O        -4.8581369916        4.6215263384       -8.3256179957
 C        -5.2803728035        6.9009503888       -9.1403602708
 C        -5.6959068253        6.4530736130      -10.6975847533
 O        -4.8769807851        6.6258802764      -11.5051252800
 C        -7.0461329346        5.7382078495      -10.9582153056
 C        -7.9484286112        6.5238278424      -11.9917561419
 C        -8.0903069030        5.7706723900      -13.3060053246
 O        -8.1053820216        4.5568101574      -13.3032780495
 C        -8.1802500209        6.5437175607      -14.6749260841
 C        -7.1942395734        5.7979593963      -15.6749993786
 O        -7.6056065649        4.9209636411      -16.4273398734
 C        -5.6238794530        6.1814187678      -15.6685188172
 C        -4.9182798433        4.9876795903      -16.2958589659
 C        -5.1317597005        3.7481114830      -15.3403775820
 O        -5.7849015100        3.9807016858      -14.3672855704
 C        -4.3370895912        2.3058155092      -15.5378894655
 C        -5.4425867112        1.2564660484      -14.9652692265
 O        -6.6406892536        1.4014246136      -14.9514148424
 C        -5.0120773198       -0.0261042285      -14.1108851971
 C        -5.7035245334       -0.1689459875      -12.8228444354
 C        -6.9856418348       -0.9413350757      -12.9411045450
 O        -6.8658915904       -1.9624156102      -13.6099524097
 C        -8.3222182851       -0.4701247423      -12.3105486220
 C        -8.9197112926        0.3963206705      -13.4868905146
 O        -9.0281980495        1.5838430513      -13.4069915711
 C        -9.2445474041       -0.3363791050      -14.7299381705
 C        -9.5026925918        0.4157380201      -16.0480569973
 C       -10.7206298216        1.3351097048      -16.1061191103
 O       -10.5366114113        2.5688833584      -16.0473108046
 C       -12.0854614248        0.7951488294      -16.4224871664
 C       -12.0933081093        0.6733165315      -18.0177630854
 O       -11.3645491468       -0.0838966319      -18.6078628386
 C       -12.9945194042        1.5570259655      -18.8318669006
 C       -12.7202296766        1.5947995198      -20.3205051976
 C       -13.7239600415        2.3970978212      -21.0987300266
 O       -14.6437305526        2.8724127273      -20.4347814282
 C       -13.7386054263        2.5854874767      -22.6319423795
 C       -12.5285689848        3.5005282742      -23.1645470505
 O       -11.3987275207        3.2165426270      -22.8540525982
 C       -12.8067110910        4.5958586500      -24.2506139583
 C       -13.5678531442        1.1759411792      -23.3276724138
 C       -15.0949527252        3.1204445797      -22.9678765201
 C       -12.3419011950       -0.6157486841      -15.8473939991
 C       -13.0910167776        1.8347652189      -15.9169476211
 C        -9.2218582803       -1.7585740554      -11.8895640470
 C        -8.0276688237        0.4717516982      -11.1334491821
 C        -4.0976226338        1.9148540818      -16.9444872506
 C        -2.9790687168        2.4175891921      -14.7582435640
 C        -9.6216807148        6.4442056582      -15.4126912353
 C        -7.8824036887        8.0294679692      -14.6060073275
 C        -6.5525656117        6.9924712455       -8.2712535930
 C        -4.4423223583        8.2424617472       -9.1923487244
 C        -0.4035335568        2.1605020495       -7.4752935687
 C         1.4824593206        3.1136858810       -9.0448308597
 C         2.5317830184       -3.4705571921      -11.0869712690
 C         0.0926241800       -3.1624956870      -10.8302862021
 C        -1.0531419190       -7.0642076480       -5.9813529836
 C         0.3067445490       -5.4964227423       -4.2975546450
 C         0.2191930837      -12.6476617423       -2.9048933852
 C        -1.3970055749      -11.0759593210       -1.6261762067
 C         2.9735687133       -7.6948904631        2.4624259785
 C         3.4883696275       -6.2961678781        0.4491531505
 C         7.9893486532       -7.7780110017       -2.8707807075
 C         5.8041106086       -6.6130259028       -2.6696361512
 H         6.5994845125      -10.1634776629       -5.6600897781
 H         7.6413457972      -10.1053963309       -4.2421675881
 H         7.6254698141       -8.8330677329       -5.6115492688
 H         7.9990614327       -8.3512823953       -0.4804906723
 H         6.9623355035       -9.6973098905        0.2901735434
 H         5.9354454974       -6.8829579332        0.0811347282
 H         6.9952957323       -7.3936200161        1.3916163957
 H         2.5357554600      -10.1907536316        1.7752225571
 H         3.2151137031      -10.8967842044        0.1418674709
 H         0.4990739977       -9.6083545978        0.2980328209
 H         0.4804603976      -11.1358736363        0.7396888423
 H         0.5361043714      -11.1210640389       -5.3152500581
 H         2.0073125635      -10.7872359876       -4.6160907461
 H         0.1606664263       -9.2131347038       -6.2584263401
 H         1.9070904957       -9.1668359886       -6.3634044547
 H         3.0467569903       -5.4481353243       -6.1179236784
 H         1.7837227767       -4.3390895377       -5.8697502968
 H         2.9055887138       -5.2484119545       -8.6209823039
 H         3.2864778752       -3.6177616737       -7.7379372106
 H         0.4514268032       -0.1953952303       -8.2531952505
 H        -0.3084458994       -1.2382799222       -9.3262744197
 H         0.3693625112        0.3249829390      -11.2911348359
 H         1.4346393040        1.1803051879      -10.1360556735
 H        -2.0759147993        4.7417722138       -7.5992875506
 H        -2.8692356511        3.6003794334       -8.5728011865
 H        -2.8298400299        5.7763203241      -10.3072545400
 H        -2.3942351986        6.6112786081       -8.9780058115
 H        -7.5813016900        5.7377447895      -10.0576425350
 H        -6.8882518237        4.6911319360      -11.2305813830
 H        -7.6372985386        7.5824194303      -12.0387939708
 H        -8.9497983347        6.4663396967      -11.6456789931
 H        -5.3042158737        6.3170278764      -14.6229318750
 H        -5.3811166040        7.0619607112      -16.3094095393
 H        -3.8880921515        5.1480312714      -16.3982937308
 H        -5.3872914455        4.9181389818      -17.2803327283
 H        -3.9338136201        0.1598719917      -13.9028491934
 H        -5.0661019426       -1.0454680617      -14.5805585711
 H        -5.8343599545        0.7757905643      -12.2966465498
 H        -5.0549110650       -0.8048475322      -12.1207963961
 H       -10.1265898461       -0.9587548866      -14.4314644586
 H        -8.5271918491       -1.1104029101      -15.0072195740
 H        -9.5538831998       -0.3049623841      -16.8832288181
 H        -8.7159440450        1.1925041550      -16.3012314541
 H       -12.8528413871        2.5872254214      -18.3410430823
 H       -14.0275936287        1.3670116765      -18.6043798259
 H       -12.5047350583        0.6148538335      -20.6400709204
 H       -11.7940922208        2.1187776113      -20.4560553252
 H       -12.0845734447        4.3865515623      -25.0455010183
 H       -12.6371808656        5.6185416607      -23.8672136164
 H       -13.8196520603        4.4618448316      -24.5688847224
 H       -14.4943264484        0.6094328231      -23.2905926687
 H       -12.9081231142        0.6522914144      -22.7137487831
 H       -13.0797452444        1.3650963380      -24.3207277660
 H       -15.1695900759        4.2052775090      -22.8859641467
 H       -15.8736640645        2.7441138603      -22.3234496646
 H       -15.3501073568        2.7816092228      -23.9793356356
 H       -13.3818574961       -0.8431500454      -16.0020332828
 H       -12.2342543654       -0.4787692270      -14.7246386073
 H       -11.6936863481       -1.4152456226      -16.2383995041
 H       -13.2396141984        2.7037037124      -16.5716025415
 H       -12.6416439820        2.3663512146      -15.0176314916
 H       -14.0898521703        1.4440351928      -15.6694145443
 H        -8.9458251045       -2.5524334166      -12.6242308472
 H       -10.3166689136       -1.5697968387      -11.9362195913
 H        -8.9310664353       -2.0962547773      -10.9104710908
 H        -8.6187526152        0.6262740566      -10.3307914740
 H        -7.7647302042        1.4176673746      -11.6223134905
 H        -7.0725337561        0.1315578970      -10.6472646923
 H        -3.6640852842        0.9310329819      -16.9089689363
 H        -3.2774130177        2.5728372764      -17.4903910413
 H        -5.0942148537        1.8468510485      -17.3758310016
 H        -2.3441076926        1.6608391807      -15.0506830185
 H        -3.1394085880        2.4536171725      -13.6419767767
 H        -2.4447554053        3.2804429003      -15.0879898234
 H       -10.3736207921        7.1133902648      -14.9009030398
 H       -10.0033181913        5.4421467144      -15.2697805391
 H        -9.4526462262        6.6850822297      -16.4723290297
 H        -6.7864697505        8.1272763483      -14.5615330833
 H        -8.3011180544        8.5272370551      -13.7770376629
 H        -8.2157131733        8.6200934753      -15.4663502035
 H        -6.4543140977        7.7408130826       -7.5233667945
 H        -6.6490576167        6.0500856280       -7.7769861316
 H        -7.4612480264        7.3461317406       -8.8463463131
 H        -3.6545003612        8.1135006679       -9.9080356493
 H        -3.9535013868        8.4139405760       -8.1907312955
 H        -5.0259035254        9.1564959503       -9.3135256536
 H        -1.3992757795        1.9167359635       -7.3399281879
 H        -0.2175108765        2.8993664780       -6.6862955087
 H         0.3637099114        1.3982123951       -7.2314454520
 H         1.7880710528        3.9891254351       -8.6009789795
 H         1.6883220626        3.2181533122      -10.0515319649
 H         2.0663156322        2.3291493554       -8.6395674546
 H         2.2337263223       -4.4968953221      -11.3342224749
 H         3.5669586546       -3.2853476274      -10.8521886825
 H         2.2899451122       -2.8446288153      -11.9169027729
 H         0.0125465087       -4.1670192220      -11.3315895017
 H        -0.0303245649       -2.3838968082      -11.5595058653
 H        -0.8392544963       -3.0427269020      -10.1496847352
 H        -1.6310513395       -7.7379679277       -5.3580290649
 H        -0.9929770483       -7.4830367678       -6.9853102050
 H        -1.6158667633       -6.1305251899       -6.0668618071
 H         0.2216597073       -4.4773997639       -4.6758554400
 H         1.2665712694       -5.4713071729       -3.7643635923
 H        -0.5695783108       -5.7289527144       -3.6254460399
 H         1.1813411321      -12.8084591555       -3.3969583117
 H        -0.5034585775      -12.8291659800       -3.7328169012
 H         0.0064896272      -13.2922740424       -2.1108626529
 H        -1.4504482319      -10.0822224220       -1.1768634371
 H        -1.6146324854      -11.8753645096       -0.8903092216
 H        -2.1826200909      -11.1697954919       -2.3096226302
 H         3.3393316052       -6.7493621249        2.8932141151
 H         3.3520883801       -8.5717339581        3.0370355565
 H         1.8625277433       -7.7726640756        2.2874733383
 H         3.7216633900       -5.6832786973        1.2999905728
 H         2.4267136882       -6.2466589554        0.2008144596
 H         4.1344580739       -6.2169821455       -0.4562487745
 H         8.4887911862       -7.5186766367       -3.7658289093
 H         8.4683305441       -8.7394083429       -2.6240626124
 H         8.4524877889       -7.0971965339       -2.1313698792
 H         5.8230947245       -6.2184255420       -1.6331572133
 H         4.7580173906       -6.6317082245       -3.0197367297
 H         6.3473412414       -5.8575469755       -3.1953567294
 Na        3.3066201014       -9.0519728115       -2.6971702536
 Na       -8.3643731532        3.1549041818      -15.3781433734
