232

 C         7.7618746871       -9.8790215026       -4.9118568737
 C         6.6092268586       -9.3980474853       -4.0961569895
 O         5.4769380120       -9.7997817746       -4.3283847019
 C         6.8660008510       -8.3791376321       -3.0264788341
 C         6.2888050843       -8.9030146208       -1.6271812376
 O         5.1758386351       -9.4188876361       -1.5916109463
 C         7.0401029467       -8.8400783940       -0.2983390563
 C         6.4273041695       -7.9151892903        0.7838326074
 C         5.0544623377       -8.3314327097        1.4312857108
 O         5.0708791880       -9.1756865495        2.2730882569
 C         3.6004114587       -7.6909316229        1.1967701142
 C         2.7925707767       -8.6964253661        0.2768706276
 O         2.7242036816       -8.4729491535       -0.9139130335
 C         2.2631057352      -10.0205381184        0.8432126207
 C         1.2463357097      -10.8001939350        0.0440874183
 C         1.2436013440      -10.9632545577       -1.4207972694
 O         2.2832543617      -11.1760305894       -2.0184719784
 C        -0.0697470887      -11.3098763192       -2.2340902027
 C        -0.2059012404      -10.1593378075       -3.5001258986
 O        -1.0833108237       -9.3999963572       -3.6149449116
 C         0.8169516069      -10.2450144725       -4.6068880163
 C         0.8994587967       -8.8962568111       -5.3098241893
 C         1.3136514204       -7.5997974597       -4.6736980907
 O         2.2742745986       -7.6419240627       -3.9269693517
 C         0.8723449120       -6.2954417213       -5.3787754021
 C         1.6442872774       -6.1236049186       -6.7206918725
 O         1.6877554008       -7.0337971504       -7.4947274169
 C         2.3614377362       -4.7804187822       -6.8890742677
 C         2.4898113636       -4.3167401842       -8.3253060299
 C         1.2049935458       -3.6255674696       -8.9770169681
 O         0.1295364446       -3.5864528901       -8.4051167634
 C         1.4188649698       -2.9330731749      -10.3359352702
 C         1.7093958199       -1.6153040330       -9.6829284378
 O         2.8279336036       -1.1650080773       -9.4626547520
 C         0.4625526873       -0.6661975877       -9.1310169689
 C        -0.0164619052        0.3025188478      -10.2449380932
 C        -0.8099060621        1.4891369227       -9.6941300643
 O        -2.0323036677        1.5813658107       -9.8359256522
 C        -0.0724408755        2.5647938704       -8.8493768187
 C        -0.7949075273        3.8359993719       -9.4523767471
 O        -0.3344200897        4.2154728106      -10.5186003306
 C        -2.0269338436        4.4903485864       -8.7379536035
 C        -2.7892917302        5.5710533774       -9.4024056069
 C        -4.3015084488        5.4103629116       -9.2535392280
 O        -4.7820445608        4.3908766266       -8.8080500854
 C        -5.2748192639        6.7431855151       -9.5599730668
 C        -6.0401211480        6.3634320409      -10.9167872746
 O        -5.4350211215        6.6093894612      -11.9673691204
 C        -7.4075086807        5.7583678031      -11.0647422955
 C        -8.2231317260        6.7793640836      -11.9755812838
 C        -8.4594983543        6.0397094790      -13.3351161746
 O        -8.7098190570        4.8464015370      -13.3160139657
 C        -8.3078295800        6.6979604755      -14.7895814698
 C        -7.1766923824        5.9138173819      -15.4988848301
 O        -7.4555869977        4.9415643296      -16.1553171564
 C        -5.7253311198        6.4846601485      -15.3607357110
 C        -4.8474278008        5.2352552706      -15.4409347131
 C        -5.2166465224        3.9751706329      -14.6919660396
 O        -5.9993250398        4.0903563928      -13.7370425138
 C        -4.5041384233        2.6190941417      -15.1401284160
 C        -5.5457897703        1.4224261926      -15.0002275120
 O        -6.6721075530        1.5915103003      -15.5035255359
 C        -5.1277763237        0.1331052899      -14.2529730427
 C        -5.8635250180        0.0658536724      -12.8589606384
 C        -7.0596651266       -1.0277445069      -12.7478322582
 O        -6.9459293837       -2.2072006391      -13.1110239272
 C        -8.4005040642       -0.3599288645      -12.2656862799
 C        -8.8861871059        0.2613436862      -13.6138716518
 O        -9.2294129188        1.4347972293      -13.6481085814
 C        -9.5325076214       -0.7578897259      -14.7019413382
 C        -9.6904416242       -0.0435326621      -16.0657381038
 C       -10.8262878700        0.9800829720      -16.1217073068
 O       -10.6117919411        2.1721880292      -16.0206079703
 C       -12.3076567735        0.6344961749      -16.5783569248
 C       -12.3528136797        0.5411088075      -18.1821281440
 O       -11.7595090908       -0.3003869129      -18.8004535593
 C       -13.2042506513        1.5903431001      -18.8902730683
 C       -12.9558098831        1.5435425064      -20.3430473913
 C       -13.8060776849        2.5888767492      -21.0619377652
 O       -14.6828714909        3.1330607495      -20.4517275939
 C       -13.6611150721        2.7220874299      -22.5568122192
 C       -12.1690941915        3.3883806251      -22.6969186587
 O       -11.1873406265        2.7309466109      -22.4264604558
 C       -12.0751593922        4.8275705950      -23.4002188227
 C       -13.6460943877        1.2795721915      -23.1465128615
 C       -14.8544317541        3.5236257126      -23.1030553577
 C       -12.8169572927       -0.7395615657      -16.0137508059
 C       -13.1888563336        1.7302362221      -15.9500457032
 C        -9.2560737448       -1.5305651262      -11.7480444283
 C        -8.2374564111        0.7492266797      -11.2295662900
 C        -4.0310705893        2.5360739923      -16.6467129564
 C        -3.2909126352        2.4643206399      -14.1755777448
 C        -9.5856002769        6.6543491725      -15.6626160482
 C        -7.8239727845        8.1771988063      -14.6931141703
 C        -6.3598342254        6.9547502932       -8.4964327900
 C        -4.4799642598        8.0679221737       -9.8381912540
 C        -0.4448130119        2.3436572314       -7.3764215345
 C         1.4574536292        2.6750892188       -9.1915363119
 C         2.5681656103       -3.5029266797      -11.1419076220
 C         0.0491022190       -2.9357830760      -11.0259768971
 C        -0.6500548530       -6.2404437665       -5.7417880272
 C         1.0347781370       -5.1165238639       -4.3212327776
 C         0.1205166202      -12.6852905854       -2.8485967367
 C        -1.3199468365      -11.2990638585       -1.4395884161
 C         2.9343553115       -7.5320691186        2.6927682322
 C         3.7250873841       -6.3909047640        0.3928862461
 C         8.2916200656       -8.0803838149       -2.8489344929
 C         6.1230158366       -7.0338543802       -3.3653972644
 H         7.4643786510      -10.6034094771       -5.6226801960
 H         8.4304103185      -10.4209911678       -4.1803176556
 H         8.4742686689       -9.0838269247       -5.3104040879
 H         8.0682715365       -8.4837404684       -0.4866949352
 H         7.0478280415       -9.8743573404        0.0761026570
 H         6.4970287721       -6.9012587934        0.4372157253
 H         7.0677036742       -7.8640522260        1.6293863205
 H         1.8240079609       -9.9160909787        1.8831581936
 H         3.1390111753      -10.7503668944        0.9207152865
 H         0.3334514637      -10.5211937233        0.5573887394
 H         1.3051290147      -11.7945907284        0.4678599685
 H         0.5405782896      -10.8517616223       -5.3911130818
 H         1.8266429775      -10.4685750381       -4.2918149883
 H        -0.0296853718       -8.6794623579       -5.8605462027
 H         1.5535880605       -8.9633368092       -6.1475130240
 H         3.3825200613       -5.0926324849       -6.5782149564
 H         1.9728815387       -3.9644733596       -6.3400863927
 H         2.6730108581       -5.1647655818       -9.0955939732
 H         3.2491504614       -3.5663091149       -8.2622980045
 H         0.9973413363       -0.1273395241       -8.3300360473
 H        -0.3751842291       -1.3350042949       -8.6479056313
 H        -0.6371843847       -0.3147629113      -10.9047192569
 H         0.8166009405        0.6918732579      -10.8235048563
 H        -1.6017591230        4.8371527690       -7.8569446849
 H        -2.7645585279        3.6650666040       -8.4464908922
 H        -2.5961392798        5.5853961373      -10.4845068643
 H        -2.5582811902        6.5640388603       -9.1280949537
 H        -8.0500495100        5.6083358409      -10.1457601729
 H        -7.4220040709        4.7843845174      -11.4684751930
 H        -7.6803894122        7.6889721612      -12.2024960995
 H        -9.2139152785        6.9937586251      -11.5298037424
 H        -5.5020178758        7.0036930784      -14.4148595457
 H        -5.4235500184        7.0981332573      -16.3092366630
 H        -3.7926266662        5.5084318610      -15.3234624452
 H        -5.0381535326        4.9149210756      -16.4039679788
 H        -4.0863522252        0.0889907722      -14.0516749790
 H        -5.3927836725       -0.7055461155      -14.9938133951
 H        -6.3446580103        1.0579339496      -12.9399338537
 H        -5.0644407592        0.0992182976      -12.0631687747
 H       -10.5823553085       -0.9274449945      -14.3438396846
 H        -9.0276388873       -1.7456148908      -14.7758253699
 H       -10.0537665994       -0.7445411073      -16.8928704165
 H        -8.8304622317        0.4009049387      -16.5687535233
 H       -13.0542306649        2.6295184831      -18.6071363892
 H       -14.2871554144        1.4547325101      -18.5519071835
 H       -13.0964112049        0.6285268625      -20.7923118452
 H       -11.9872799807        1.8367074234      -20.6170993102
 H       -13.0281691115        5.0172066096      -23.8487979175
 H       -11.2787387276        4.8244589693      -24.1328342373
 H       -11.6883347896        5.5492606104      -22.6334472527
 H       -14.6545282277        0.8649698493      -23.1155643468
 H       -12.8060725720        0.6311069025      -22.7797452250
 H       -13.5562389934        1.4418531468      -24.1942829240
 H       -15.0401136173        4.3268484646      -22.3710352695
 H       -15.7706813761        2.9012940029      -23.3061776722
 H       -14.5336709543        3.9087194150      -24.0480336534
 H       -13.8956697067       -0.8381627643      -16.2996080472
 H       -12.7535040599       -0.7972276519      -14.9121594851
 H       -12.2032663348       -1.4689459363      -16.5244787654
 H       -12.8422738959        2.7265236152      -16.1639389754
 H       -13.2620158723        1.5478319973      -14.8635556896
 H       -14.2775184540        1.6648504012      -16.0819651321
 H        -9.0720269761       -2.4603841154      -12.3271019109
 H       -10.2959039426       -1.2405716337      -11.6631388284
 H        -8.8268447069       -1.6552666748      -10.7301066336
 H        -8.9869969398        1.5345459256      -11.5660287366
 H        -7.3312546281        1.2299528120      -11.0170861825
 H        -8.5735877582        0.5351521043      -10.2631017751
 H        -3.4734161754        1.5598418532      -16.8931630232
 H        -3.4855001427        3.3998613413      -16.8137671853
 H        -4.9376920978        2.6127053528      -17.3429433000
 H        -2.9554572867        1.4148299949      -14.2190735041
 H        -3.5908174113        2.7894362491      -13.2575205610
 H        -2.4193770715        3.0541757597      -14.4082275495
 H       -10.2623191070        7.3196999637      -15.1895643505
 H       -10.1249039075        5.6672616746      -15.7134669596
 H        -9.2723754305        6.9263020558      -16.6719846092
 H        -6.8131993341        8.3747421269      -14.4473201209
 H        -8.2907009621        8.6876364917      -13.8412930315
 H        -8.1230072282        8.7422116760      -15.5263348223
 H        -5.9194585589        7.1217151872       -7.4857975184
 H        -6.9861205488        6.0538264353       -8.4217243464
 H        -7.0171762113        7.6715134276       -8.8273023033
 H        -3.9184730530        8.0004800819      -10.7847673465
 H        -3.8930549954        8.3649812156       -9.0315691182
 H        -5.1154411346        8.9308851942      -10.1127016507
 H        -1.5538630718        2.2835378862       -7.1285079822
 H        -0.0202011488        3.1899250110       -6.8166963432
 H        -0.1522976809        1.4387841030       -6.9244058724
 H         1.7631823433        3.6201707091       -8.8990642941
 H         1.6903072757        2.5507015917      -10.2027866921
 H         1.9319350367        2.0187099757       -8.5761797496
 H         2.3658559029       -4.3963727160      -11.6050713637
 H         3.2908438118       -3.6867688634      -10.4125740952
 H         2.8151375216       -2.8211126967      -11.9607892380
 H        -0.1051070922       -3.7519501085      -11.7474887596
 H        -0.0006259545       -2.1050397924      -11.8102923581
 H        -0.7900878679       -2.9886146714      -10.3693985771
 H        -1.3228900160       -6.4865792309       -4.9119967572
 H        -0.7938267966       -6.8885700901       -6.5816886768
 H        -0.8954007719       -5.2417825537       -6.1397317519
 H         0.6783231239       -4.1549791983       -4.7909055171
 H         2.0409498761       -5.1000736933       -3.8487545689
 H         0.4045460605       -5.3510847749       -3.4826183149
 H         1.0922563012      -12.7552563257       -3.2983623366
 H        -0.6695551238      -12.9257838235       -3.5280897937
 H         0.0794829570      -13.4744534580       -2.0074735078
 H        -1.4258080290      -10.4652279398       -0.8131336735
 H        -1.2609765185      -12.0932879077       -0.7390096108
 H        -2.2474332822      -11.3596983368       -2.0580095726
 H         3.2076397484       -6.5375414633        3.1443905778
 H         3.3155659787       -8.4088634680        3.1813220827
 H         1.8669159965       -7.3402256790        2.5221896433
 H         4.2813373102       -5.8267727548        1.1321578599
 H         2.7294862938       -5.9838626157        0.1978638047
 H         4.0656418254       -6.6188150900       -0.5888187676
 H         8.7651616961       -7.9262501649       -3.8505149123
 H         8.9040281714       -8.8336420987       -2.4002448712
 H         8.5020813945       -7.1777411008       -2.2588965758
 H         6.3592076460       -6.1878415315       -2.6864303219
 H         5.0600512630       -7.2368535352       -3.2906435090
 H         6.3514868748       -6.7902219097       -4.4348173086
 Na        3.5757053459       -9.4589428519       -3.0415578922
 Na       -8.6448632820        3.3049281899      -15.1313666146
