232

 C         7.8653289083      -10.0831035656       -4.8829791797
 C         6.6781255365       -9.5858644361       -4.0861320458
 O         5.5623975249      -10.1102447344       -4.2436334837
 C         6.9525980739       -8.4021583083       -2.9470534538
 C         6.2761796880       -8.9127956790       -1.5641883858
 O         5.1992191826       -9.4585485446       -1.5600610083
 C         7.0200366387       -8.8451083742       -0.2498852139
 C         6.4078081749       -7.9012445370        0.8284887969
 C         5.1208097911       -8.4035004733        1.4686553296
 O         5.1857500659       -9.3654174102        2.2291190961
 C         3.6975845639       -7.7006516479        1.1772455875
 C         2.9393236178       -8.6649829888        0.1741485665
 O         2.6178157208       -8.2768730897       -0.9280300423
 C         2.4575961648      -10.1312641425        0.7704423066
 C         1.1251416243      -10.8226002235        0.1271739986
 C         1.2989266237      -10.9943936416       -1.3915170471
 O         2.3663950153      -11.1132018839       -1.9050323852
 C        -0.1343765884      -11.2209584078       -2.2455780445
 C        -0.2248168668      -10.2189503014       -3.5028611192
 O        -1.2275169122       -9.4931831833       -3.5204279929
 C         0.7752345046      -10.2837754260       -4.5696998086
 C         0.7033869262       -8.9501837547       -5.4554495615
 C         1.4117814119       -7.6509791782       -4.7612513401
 O         2.4192451921       -7.7019966280       -4.0054357516
 C         0.9493176356       -6.2488726067       -5.2932857375
 C         1.7436543715       -6.0623901837       -6.6754552783
 O         1.7969033054       -6.9505500059       -7.4908938391
 C         2.4658300484       -4.6970832651       -6.9205075298
 C         2.5533734950       -4.3381605504       -8.4383522754
 C         1.1806133834       -3.7551949005       -9.0621818253
 O         0.1742886363       -3.5905394771       -8.4095188650
 C         1.3787776290       -2.8998618938      -10.3721306505
 C         1.7073509649       -1.4090904385       -9.7333129915
 O         2.8249085150       -1.0470875276       -9.5811304117
 C         0.5086188676       -0.6408686680       -9.1878759358
 C        -0.1811078301        0.1160510483      -10.3075491988
 C        -0.8968954220        1.3859597656       -9.6227985575
 O        -2.0715795938        1.4630900240       -9.8256830372
 C        -0.0915909966        2.5258169904       -8.8624416862
 C        -0.7645422863        3.8847243469       -9.4714394216
 O        -0.3981779058        4.2956728692      -10.5097589572
 C        -2.0134828974        4.4177394986       -8.7332402948
 C        -2.7431388281        5.4601227684       -9.5661688046
 C        -4.3238214534        5.4730084612       -9.2935082186
 O        -4.8837846478        4.4338285021       -8.9701205700
 C        -5.2618504400        6.6256371223       -9.6765797378
 C        -6.0329547390        6.3682223924      -11.1165037347
 O        -5.3347783969        6.6260512979      -12.1317696899
 C        -7.4766397002        6.0034455588      -11.0923201595
 C        -8.4284616572        6.7751278841      -11.9630662197
 C        -8.5669365628        6.1028456204      -13.4100448923
 O        -8.7560685776        4.8764917481      -13.3679375334
 C        -8.3633878101        6.8921723904      -14.7517412059
 C        -7.1661203853        6.0115682703      -15.3822359438
 O        -7.4239635488        4.9818728260      -16.0089964682
 C        -5.7379058803        6.3013091850      -15.1086417198
 C        -4.6882433796        5.2460050247      -15.5113798173
 C        -5.2689782801        3.9630500185      -14.7040517977
 O        -6.0727053249        3.9307889711      -13.8194255432
 C        -4.4742566551        2.6671027471      -15.0751977043
 C        -5.5869874282        1.4807318961      -14.9767839310
 O        -6.6421848166        1.7102424635      -15.5226049533
 C        -5.2300775679        0.1745827873      -14.3178935516
 C        -5.8727076121        0.0673384777      -12.9232007776
 C        -6.9960115790       -0.9323014701      -12.7606959764
 O        -6.9316095032       -2.1155668825      -12.9715207947
 C        -8.3953152785       -0.3678532072      -12.1846160905
 C        -9.1724343353        0.2208327577      -13.5267724727
 O        -9.1033903017        1.3992401981      -13.6426494276
 C        -9.6365796852       -0.7388240667      -14.7279227817
 C        -9.7178027967       -0.1157180352      -16.1172427838
 C       -10.8607205117        1.0183866044      -16.2884532993
 O       -10.5677570580        2.1540577744      -15.9895126050
 C       -12.3045777198        0.6128739204      -16.5465369983
 C       -12.4094759187        0.5834391783      -18.1101219713
 O       -11.8477636836       -0.2500710694      -18.7748046683
 C       -13.1853940597        1.6576843531      -18.7731732332
 C       -13.1128084305        1.4329490249      -20.2623785664
 C       -13.9334922437        2.5438734191      -21.0389868210
 O       -14.6812351051        3.2709064791      -20.3996862140
 C       -13.5998650947        2.7929534157      -22.5920669192
 C       -12.1930785095        3.3062242420      -22.7044843253
 O       -11.1840152503        2.6600020262      -22.3990163809
 C       -11.9490252596        4.7776498091      -23.1668472173
 C       -13.4694242490        1.4197059513      -23.2724660260
 C       -14.7517720152        3.6257219663      -23.1357372839
 C       -12.8594224509       -0.8023101017      -16.0461415570
 C       -13.3300550374        1.6515528617      -16.0662679960
 C        -9.3453398082       -1.5516949379      -11.6488525230
 C        -8.3008845529        0.6771447061      -11.1327347050
 C        -3.9848108365        2.6281915673      -16.4644667011
 C        -3.3581631573        2.5727467113      -14.0523417601
 C        -9.5375977748        6.6861933826      -15.7148101851
 C        -8.0715379738        8.4089376629      -14.6398398092
 C        -6.2502585217        6.9480371348       -8.5423711143
 C        -4.5521453627        7.9775605958       -9.8713976607
 C        -0.3279653149        2.4261517783       -7.3781467078
 C         1.4272148978        2.6746980710       -9.1520405206
 C         2.5352834542       -3.4917237657      -11.2240502586
 C         0.0007791670       -2.9174753125      -11.1108705007
 C        -0.6152892969       -6.1255465850       -5.6022886975
 C         1.1672858474       -5.0588169133       -4.1643893998
 C         0.1477520516      -12.6641855226       -2.8907071909
 C        -1.4542588544      -11.3178602062       -1.4647673268
 C         2.9830685430       -7.5260052426        2.5086173545
 C         3.6057091915       -6.2695840979        0.4698459701
 C         8.4736881503       -7.9442048716       -2.7438666692
 C         6.2021076024       -7.1623321487       -3.4667326249
 H         7.4075864380      -10.6149444938       -5.6730641915
 H         8.5930977646      -10.7164672014       -4.4308683866
 H         8.4238993334       -9.2217959220       -5.2433756266
 H         8.0013637137       -8.5401114181       -0.4471550387
 H         7.0506416787       -9.7843569036        0.1805525167
 H         6.3508277761       -6.9012371009        0.5268219384
 H         7.1279228814       -7.8392839642        1.6545600783
 H         2.2682995315      -10.0060052310        1.8543554880
 H         3.2058564551      -10.8394128302        0.6561509713
 H         0.2937709978      -10.1286169251        0.4931118013
 H         0.8551576327      -11.7202938710        0.7272730195
 H         0.4685935963      -11.0710150084       -5.2690560063
 H         1.7911581808      -10.4345533789       -4.2243059836
 H        -0.3290183916       -8.6230734464       -5.5141424393
 H         0.9514228727       -9.0641912888       -6.5171466419
 H         3.5169458760       -4.9621133271       -6.6163941916
 H         2.0695506949       -3.8041074397       -6.4871992502
 H         2.7907924312       -5.1618197968       -9.1122768179
 H         3.2272422948       -3.5334737329       -8.4835645698
 H         0.9459435969        0.0668651489       -8.3522553182
 H        -0.1419961082       -1.4467339476       -8.7396795961
 H        -0.8744786787       -0.5377959808      -10.8202886872
 H         0.5476713017        0.4960416592      -11.0902816564
 H        -1.7231082145        4.8021866607       -7.6622427171
 H        -2.6777569422        3.5820428873       -8.6141694612
 H        -2.6506468464        5.3106218648      -10.6283086257
 H        -2.4100105928        6.5073236853       -9.3804538086
 H        -7.9923345763        5.8806118360      -10.1150406085
 H        -7.5507173156        4.8838863291      -11.4310067167
 H        -8.1763185985        7.8416037450      -12.0795486600
 H        -9.4907664600        6.6592979470      -11.4603313293
 H        -5.5849362010        6.3781213835      -13.9426619611
 H        -5.5632760539        7.2695337918      -15.6197531868
 H        -3.7641113782        5.5282084957      -14.9908451531
 H        -4.5414817970        5.1343218299      -16.5860185026
 H        -4.1369528976        0.1895829017      -14.1642123016
 H        -5.4956729188       -0.6698989602      -14.8989273589
 H        -6.2446158044        1.1332358306      -12.7966792347
 H        -5.0702628157       -0.1215266021      -12.2333059051
 H       -10.5299750554       -1.3326808134      -14.6135747026
 H        -8.7590342729       -1.4120530203      -14.7189682384
 H        -9.9682840934       -0.9116957707      -16.9065260572
 H        -8.8104242557        0.3232473673      -16.5709922915
 H       -12.7451974116        2.6281875250      -18.5368837043
 H       -14.2651822654        1.7797000839      -18.3993198403
 H       -13.6280556861        0.4778699244      -20.4745967233
 H       -12.1675087223        1.3840849374      -20.7696149330
 H       -12.9271163262        5.2731461386      -23.4986428969
 H       -11.2434947864        4.7553031431      -23.9508665667
 H       -11.3698286176        5.2126098854      -22.4074742452
 H       -14.4351199898        1.0291114741      -23.3773649882
 H       -12.7487394153        0.7667122450      -22.7854638824
 H       -13.1706700229        1.5570957143      -24.2608640467
 H       -14.6243171159        4.6258835878      -22.8312210391
 H       -15.6648083313        3.2453327322      -22.7797381245
 H       -14.7016129671        3.5370962056      -24.2567712313
 H       -13.9599683159       -0.8309583652      -16.2547465929
 H       -12.7068234003       -0.8833146648      -15.0093016744
 H       -12.2974181827       -1.5915916325      -16.6290127086
 H       -13.3014821668        2.5915803876      -16.7146504377
 H       -13.1256599389        2.0006924877      -15.0911869935
 H       -14.3019757410        1.3518284030      -15.8533648583
 H        -9.2243136054       -2.4535418799      -12.1768442729
 H       -10.3636634066       -1.1460583378      -11.6402463883
 H        -9.0390946529       -1.6895244482      -10.6073575750
 H        -8.8894144668        1.6062544390      -11.3641328988
 H        -7.3183950108        1.0082389734      -10.7891393154
 H        -8.6840768545        0.3818960192      -10.1794303046
 H        -3.6471784115        1.5725252026      -16.7097492513
 H        -3.2757295109        3.4369364870      -16.6758488771
 H        -4.8937216412        2.8073255563      -17.0873238388
 H        -2.7325280457        1.6989966887      -14.3246176520
 H        -3.8607306930        2.4982353113      -13.0846076062
 H        -2.7504120123        3.4683949685      -13.9584053777
 H       -10.3131905199        7.4911323537      -15.4589834345
 H       -10.0266726409        5.7542104699      -15.4684250405
 H        -9.2090354009        6.6332662831      -16.7687078519
 H        -7.1208689702        8.6954648471      -14.2524763869
 H        -8.7359701769        8.9277533206      -13.9228396626
 H        -8.2435414997        8.8651987472      -15.6287958166
 H        -5.6635120574        7.6232767358       -7.9242541273
 H        -6.4556110596        6.1199190460       -7.9039109401
 H        -7.2357117519        7.2991155836       -8.8345567471
 H        -3.8083855317        8.0224371743      -10.6892075836
 H        -4.1180292759        8.3924392869       -8.9367027757
 H        -5.2229120085        8.7152470013      -10.2970260388
 H        -1.3536774147        2.2218090261       -7.0093289277
 H         0.1377900483        3.3004005445       -6.8829738622
 H         0.0574091078        1.4740822060       -6.9484495749
 H         1.6125570245        3.7128068734       -8.8414843522
 H         1.7102461443        2.5143484278      -10.1500993059
 H         1.9637393549        2.0752280233       -8.3737889325
 H         2.3461307214       -4.4601268992      -11.6652388597
 H         3.3392819801       -3.6421753249      -10.5091620398
 H         2.7663154563       -2.8750362181      -12.0240613581
 H        -0.2230889495       -3.7486325641      -11.7513077107
 H         0.0525554760       -2.1572622567      -11.9085710605
 H        -0.8435338105       -2.8275579786      -10.4779010106
 H        -1.2501950461       -6.4606533557       -4.8234732090
 H        -0.7225684921       -6.7001900178       -6.5656162426
 H        -0.8394232207       -5.1457967699       -5.8684101044
 H         0.9358905600       -4.1939820271       -4.7694661324
 H         2.1967364694       -5.0485576014       -3.7947572260
 H         0.5292470618       -5.0866578344       -3.2553552113
 H         1.0660519873      -12.5613090243       -3.5369413120
 H        -0.7298403552      -13.0755768702       -3.4183258241
 H         0.4173095935      -13.3848273509       -2.1628917993
 H        -1.8339201275      -10.3928511135       -0.9453959817
 H        -1.2772499207      -11.9660417318       -0.6390689483
 H        -2.2550497685      -11.6422462899       -2.1025442771
 H         3.2177489431       -6.5204342502        2.7733134642
 H         3.3503662378       -8.2629706533        3.2441570104
 H         1.9766109412       -7.3480007707        2.2549917958
 H         3.8870099627       -5.6447825505        1.2958388821
 H         2.5607143933       -6.0949404028        0.2180970801
 H         4.1288496629       -6.2979444689       -0.4747876325
 H         8.9325484033       -7.8161912658       -3.7602472044
 H         9.0520392811       -8.7999346168       -2.3481736279
 H         8.7266792915       -7.0763341531       -2.1657820394
 H         6.0985604650       -6.3920792114       -2.7598235457
 H         5.2049045419       -7.4007497459       -3.9054822502
 H         6.8397346693       -6.8603501888       -4.3249866566
 Na        3.6781449566       -9.3908970918       -3.0704368132
 Na       -8.7215349375        3.0437421526      -15.1879277656
