232

 C         8.0781289558      -10.2878076676       -4.7015197678
 C         6.9059430159       -9.8430931615       -3.8601127283
 O         5.8003220079      -10.3431248964       -3.9393088918
 C         7.1141496941       -8.6036385438       -2.8075147541
 C         6.4906422073       -9.0265761301       -1.4670269559
 O         5.2877523504       -9.3269250585       -1.3525933224
 C         7.1890082910       -8.7856478965       -0.1422359672
 C         6.3720887428       -7.8064216535        0.7107238413
 C         5.0860325329       -8.4030642540        1.2389097621
 O         5.1941710836       -9.4080702856        1.8702826081
 C         3.6636912259       -7.7424934193        1.1180362671
 C         2.9169136960       -8.7403139443        0.0676131088
 O         2.5138654348       -8.2239859521       -0.9679435317
 C         2.6426505084      -10.1521610225        0.5176285260
 C         1.1956417380      -10.3710366318        0.0197187000
 C         1.2157018280      -10.8596855444       -1.4338884511
 O         2.3101949099      -10.8873675080       -2.0445797332
 C        -0.0681191528      -11.3145051374       -2.2531977964
 C        -0.2752452117      -10.2146041891       -3.2898389319
 O        -1.2824559082       -9.6147942250       -3.3445302238
 C         0.7423222641      -10.0902043668       -4.5057180168
 C         0.4836110888       -8.8094940801       -5.3405547644
 C         1.4123904961       -7.6892298200       -4.9030395011
 O         2.4725355651       -7.8543878743       -4.3674629726
 C         1.0896977379       -6.1645692755       -5.2809973937
 C         1.7575711257       -5.8803908327       -6.6602213818
 O         1.9518989914       -6.7805932428       -7.4483314949
 C         2.4704113908       -4.5337155921       -6.9252287824
 C         2.6430946679       -4.4501684479       -8.4724116216
 C         1.3423941389       -3.7795424788       -9.0966460939
 O         0.3345401244       -3.7885792740       -8.4283583806
 C         1.3702616103       -2.8976579394      -10.4354854917
 C         1.6985901069       -1.4558509404       -9.9204730868
 O         2.8582960294       -1.0221816528      -10.0021375212
 C         0.5682287082       -0.6289740103       -9.2117875452
 C        -0.2003259797        0.2684233657      -10.1919125942
 C        -1.0021930843        1.3463060862       -9.5432563299
 O        -2.2400089271        1.4706829664       -9.5642821821
 C        -0.2215726727        2.5158555878       -8.9823608858
 C        -0.9234133972        3.9106531421       -9.4722109522
 O        -0.4043908980        4.4387189136      -10.4534978036
 C        -2.2940742597        4.3591639232       -8.9334708861
 C        -2.8735204625        5.4428895005       -9.8235293699
 C        -4.4001555865        5.4041555937       -9.5919934930
 O        -5.0143351816        4.4308196961       -9.1922302308
 C        -5.1816936973        6.7819516981       -9.7362565258
 C        -6.0719124468        6.5834181190      -11.0305024150
 O        -5.3863233293        6.5789158351      -12.0126832082
 C        -7.5150907371        6.0412258200      -11.1485317262
 C        -8.5033393744        6.7664283570      -12.0985455831
 C        -8.6868159751        6.0613215767      -13.4708566141
 O        -9.0802552381        4.9282073831      -13.6181012275
 C        -8.4815010947        6.9269305725      -14.7778347514
 C        -7.2733078338        6.1369757208      -15.3029575749
 O        -7.4266633911        5.1453472811      -15.9680184345
 C        -5.8035134132        6.5706511755      -15.0123456479
 C        -4.8706598746        5.3767929309      -15.3255944024
 C        -5.2958903419        4.0156830733      -14.6862413481
 O        -6.2576285451        3.8939660738      -13.9090861130
 C        -4.4967380053        2.6170251749      -15.0270583416
 C        -5.5719224230        1.4823755757      -15.0135887596
 O        -6.6442507202        1.7578339220      -15.5329309529
 C        -5.4276662417        0.0494674314      -14.3237282108
 C        -5.9948934299        0.2245281322      -12.8150337633
 C        -7.0307762634       -0.8850659850      -12.5724721488
 O        -6.9427208005       -2.0884372161      -12.8862653088
 C        -8.4256628363       -0.4531657922      -12.1345149888
 C        -9.1320125049        0.2380829568      -13.4110860241
 O        -9.0852484445        1.4354249648      -13.6400380709
 C        -9.6777616639       -0.7233049057      -14.4948844858
 C        -9.9196543339       -0.0869245927      -15.8939121488
 C       -10.9374566004        1.0170078152      -16.1565699102
 O       -10.7190518959        2.2288389646      -16.1323543393
 C       -12.4480655998        0.5487532744      -16.4086888272
 C       -12.4589449970        0.5212360674      -18.0526733735
 O       -11.8602835646       -0.3654505961      -18.5819139965
 C       -13.1007694781        1.6741874686      -18.8936677517
 C       -13.5059263018        1.3216998992      -20.3848479802
 C       -13.9378739465        2.6217456627      -21.1887618044
 O       -14.5832296554        3.4575206964      -20.6337500182
 C       -13.5743519078        2.8684641553      -22.6795687955
 C       -12.0596960915        3.3768455866      -22.5612977191
 O       -11.2096912114        2.5852749499      -22.2206996283
 C       -11.6480259919        4.7838903443      -22.7585468237
 C       -13.5708343347        1.5576671509      -23.4331515450
 C       -14.6355528789        3.8150650979      -23.3878713017
 C       -12.7593771580       -0.9312833898      -16.0017688170
 C       -13.3774437945        1.5630419503      -15.6763658671
 C        -9.3014402960       -1.6927388501      -11.7840582900
 C        -8.5285353997        0.5863367382      -11.0685582366
 C        -3.6721436831        2.6377811389      -16.3707793745
 C        -3.4489462824        2.3974349443      -13.8866109252
 C        -9.7517152118        6.6734905625      -15.7537132776
 C        -8.2572405142        8.4423690436      -14.5738889882
 C        -6.0506122826        6.8997629664       -8.4800699207
 C        -4.2982756003        7.9662607059      -10.0238450227
 C        -0.3818443085        2.4923467572       -7.4495870911
 C         1.2782677404        2.5371862672       -9.3980145969
 C         2.5083917289       -3.2891604804      -11.3321132825
 C         0.0251336956       -2.9829331151      -11.1629487359
 C        -0.4537524390       -6.0121924660       -5.4901767995
 C         1.7014047985       -5.3031392275       -3.9998045338
 C         0.2354356657      -12.7006684943       -2.9082685707
 C        -1.2713558578      -11.3957175152       -1.2768649436
 C         2.8522570150       -7.8358521866        2.5348300495
 C         3.9312510010       -6.3574895589        0.5030919828
 C         8.5783050903       -8.1785881499       -2.7524494356
 C         6.1662273538       -7.5024760032       -3.5071414620
 H         7.7871715207      -11.0580953331       -5.3872461391
 H         8.7666653545      -10.7168793445       -3.9414849767
 H         8.7444866235       -9.4804350508       -5.0107842705
 H         8.2294145869       -8.3519372855       -0.2297524284
 H         7.3790356771       -9.6770385989        0.5551978030
 H         6.2165774996       -6.7702361612        0.2530076597
 H         7.0415461281       -7.5903876656        1.5536734118
 H         2.7807568147      -10.3893941248        1.5570876907
 H         3.2388358734      -10.8777586289       -0.0982323160
 H         0.5996416295       -9.4884597642        0.1824298703
 H         0.7329866510      -11.1499323752        0.6474181799
 H         0.5870852439      -10.8727280733       -5.2636883289
 H         1.8395713565       -9.9664548466       -4.2871402668
 H        -0.5686149172       -8.4351766432       -5.4239320425
 H         0.7524007113       -9.0266265536       -6.3930427076
 H         3.4643815960       -4.6606462581       -6.5152680543
 H         1.8058856645       -3.7699143112       -6.4177302889
 H         2.6885426478       -5.4901537108       -8.8251683682
 H         3.5697858756       -3.8756735383       -8.7196422834
 H         1.0556263077       -0.0882016922       -8.5194416239
 H        -0.1591899931       -1.2947501349       -8.7670258069
 H        -0.8337749917       -0.3710765360      -10.8608039251
 H         0.4499226474        0.7944701749      -10.8731194034
 H        -2.2805875919        4.6740046879       -7.9622564230
 H        -2.9709030403        3.4418514370       -9.0183404428
 H        -2.8282729299        5.2467634092      -10.9528328391
 H        -2.5046002731        6.4336956816       -9.5844508486
 H        -8.1046913816        6.1043095519      -10.2496653937
 H        -7.4571326337        5.0178554798      -11.3298855063
 H        -8.2897310080        7.8306799544      -12.1759690129
 H        -9.4431137911        6.7199384984      -11.6418747525
 H        -5.7701967041        6.6624930800      -13.9967275602
 H        -5.4991685453        7.4910335904      -15.5157950112
 H        -3.8467300083        5.5288561603      -14.8815059652
 H        -4.7699253409        5.2399307176      -16.4333239547
 H        -4.4297624067       -0.3156372666      -14.3997562117
 H        -6.1642228382       -0.7616686363      -14.6153099410
 H        -6.3931382907        1.1858793426      -12.7383545519
 H        -5.1816595496        0.2357451920      -12.0761007795
 H       -10.5928507618       -1.2164513729      -14.1071729503
 H        -8.9012471211       -1.4657945979      -14.6499019227
 H       -10.1350798726       -0.7239102977      -16.7047724379
 H        -8.9730244518        0.2725807885      -16.2459069559
 H       -12.3566259314        2.5160270549      -18.9426466975
 H       -13.9224830111        2.1091476367      -18.3813765005
 H       -14.2931711694        0.5324243726      -20.4751472751
 H       -12.6271171745        1.0162161661      -21.0227954840
 H       -12.4880712813        5.3846247597      -22.6558994245
 H       -11.1879698668        4.8518387287      -23.7485377863
 H       -10.7936770784        4.9707131053      -22.0779081503
 H       -14.5234265971        1.0105558614      -23.2888104554
 H       -12.7316038537        0.9355203403      -23.0515418484
 H       -13.3786191794        1.6437596592      -24.5142207998
 H       -14.3750535443        4.8867284714      -23.2829623161
 H       -15.5540908300        3.6303944686      -22.7894061263
 H       -14.7474382667        3.6165815606      -24.4025044929
 H       -13.7190351683       -1.2304855524      -16.3441284113
 H       -12.6236972435       -0.9812935349      -14.8942599316
 H       -12.0380278299       -1.5207526458      -16.4658512838
 H       -13.1266070271        2.5560531472      -15.8256563835
 H       -13.3803976369        1.4577654876      -14.5665779369
 H       -14.4860207579        1.5268203491      -15.8693682151
 H        -9.4285077431       -2.3235790786      -12.6827768267
 H       -10.2040927124       -1.2479241543      -11.4522299781
 H        -8.8150855647       -2.2415305406      -10.9983214477
 H        -8.3762488115        1.6014059527      -11.4557949713
 H        -7.7582362893        0.5161446253      -10.3154595140
 H        -9.4133412796        0.5767763911      -10.4272022725
 H        -3.3821784902        1.6156989697      -16.4349598713
 H        -2.8314462675        3.2536389742      -16.3071485681
 H        -4.2436959939        2.8992728715      -17.2386284467
 H        -2.5288092810        2.0357942205      -14.3857226012
 H        -3.7613117923        1.6843421214      -13.1229424143
 H        -3.3212733948        3.3606761585      -13.3295686007
 H       -10.5739134106        7.2217772062      -15.4091646975
 H        -9.9761519973        5.5782343910      -15.8260601811
 H        -9.4830500810        6.9983819197      -16.7681123048
 H        -7.6318040655        8.5738688105      -13.6506931219
 H        -9.1496327646        9.0311178955      -14.3147962337
 H        -7.6901532076        8.9378573289      -15.3566300381
 H        -5.4781791659        7.2659536637       -7.6068112597
 H        -6.5210686787        5.9166503974       -8.2292074469
 H        -6.9134159796        7.5368064627       -8.6750318619
 H        -3.7381242712        7.8944435192      -10.9575336304
 H        -3.5979551512        8.0568111261       -9.2190696855
 H        -4.7885919025        8.9505937379      -10.1690800539
 H        -1.3736831414        2.2049926800       -7.1399194103
 H        -0.0679997809        3.4354073327       -7.0365318319
 H         0.0572991323        1.6809431059       -6.9510444751
 H         1.8323585776        3.3646106369       -8.8682386586
 H         1.2830952811        2.6567909701      -10.5386796138
 H         1.7286958999        1.5894752328       -9.0726564424
 H         2.7295260720       -4.3577332343      -11.4892832759
 H         3.4340449629       -2.8008132664      -10.9492780200
 H         2.2730194136       -2.8156160642      -12.3842879351
 H        -0.2805295433       -3.9797262077      -11.3994355064
 H        -0.0488164326       -2.4504468918      -12.1164275981
 H        -0.7561655666       -2.6239634050      -10.5146347093
 H        -1.0804363151       -6.3510143299       -4.6379160064
 H        -0.6256279497       -6.5117866229       -6.4049937959
 H        -0.6755117104       -4.9163805068       -5.6815736068
 H         1.4666342786       -4.2349622072       -4.1277560042
 H         2.7654784949       -5.5393187998       -3.9527666992
 H         1.2769411753       -5.6265055462       -3.0834172478
 H         1.1739881088      -12.7655814982       -3.3642717585
 H        -0.5927648988      -12.9745945788       -3.5170412120
 H         0.2498193630      -13.5026109001       -2.0949321182
 H        -1.4763905926      -10.4061457222       -0.9624736553
 H        -1.1140495182      -11.8989044065       -0.3031862688
 H        -2.2139186882      -11.6945626218       -1.7980764362
 H         3.4472037211       -7.3128465536        3.2983504613
 H         2.9784682569       -8.8334556804        2.7641583110
 H         1.8781015189       -7.3814047298        2.3775079396
 H         4.5592566413       -5.8612170350        1.2350872992
 H         2.9590092345       -5.8440958696        0.5248848751
 H         4.3519711899       -6.5601159020       -0.4949977178
 H         8.9287582193       -7.7382064699       -3.6949650247
 H         9.1961083393       -9.0082092867       -2.3910912856
 H         8.7014035383       -7.3265443935       -2.0343677745
 H         5.7323156515       -6.8525929472       -2.7209406391
 H         5.3907157237       -8.0713968650       -3.9354515860
 H         6.6330267815       -6.9700306270       -4.3043635625
 Na        3.5657218348       -9.3937925234       -3.0547166993
 Na       -8.5208853819        3.0821828145      -15.2218643901
