232

 C         8.0740325697      -10.9876468721       -4.0408150231
 C         6.9491644336      -10.1306108857       -3.5717601017
 O         5.8151477465      -10.5725441442       -3.6646303480
 C         7.2394719795       -8.7059066032       -2.8336612333
 C         6.5915533530       -8.9279004467       -1.2485861442
 O         5.4489822018       -9.3010854010       -1.1115689252
 C         7.4234299015       -8.6697178843       -0.0235624797
 C         6.6229983308       -7.7803026691        0.9135564778
 C         5.2326002496       -8.4406766343        1.1150221461
 O         5.1351921734       -9.5865282158        1.4622626201
 C         3.7460475337       -7.6760186708        1.0572485845
 C         2.9887299160       -8.4849542782       -0.0371140868
 O         2.9826070072       -7.9845765961       -1.1754712668
 C         2.7366199250       -9.9782526350        0.2277200160
 C         1.2831127330      -10.4525347388       -0.2488000313
 C         1.2719587836      -11.1138490708       -1.6289121293
 O         2.2632431257      -11.0385755594       -2.3984955808
 C        -0.0860278077      -11.5003703510       -2.3249862254
 C        -0.5318287208      -10.2598416773       -3.2918114176
 O        -1.4072297115       -9.5388239756       -2.9165016331
 C         0.3204635986      -10.0612175527       -4.7000630890
 C         0.2935459757       -8.5728825390       -5.2117264391
 C         1.5852837774       -7.7669559035       -4.9480092565
 O         2.6391749998       -8.1711230929       -4.4982097229
 C         1.4283392901       -6.2122183794       -5.1411262912
 C         2.0048265861       -6.0016217615       -6.7000790047
 O         1.9823810426       -6.7942075076       -7.6013024269
 C         2.6178237441       -4.6157869766       -6.9150374736
 C         2.7531547490       -4.0681338128       -8.3257852156
 C         1.4069127701       -3.7776209244       -9.0248016344
 O         0.3690097278       -4.0060639218       -8.4567570922
 C         1.3854459655       -3.0266883447      -10.4884289853
 C         1.6118322619       -1.4120693149      -10.1315405030
 O         2.5984067897       -0.7734390800      -10.5076222464
 C         0.4266836285       -0.7604398884       -9.3935627086
 C        -0.2936681487        0.1820631021      -10.3741171508
 C        -1.0162588673        1.2771252642       -9.5840433519
 O        -2.1417929124        1.1276196823       -9.1342492037
 C        -0.2743186361        2.6753441744       -9.1433405203
 C        -1.0672620687        3.8477633195       -9.7300649205
 O        -0.4823193883        4.7151297694      -10.3921368520
 C        -2.5758930962        4.0851133347       -9.3338736738
 C        -3.1552941956        5.3476667063      -10.0038675762
 C        -4.6555322654        5.4188247297       -9.7051606185
 O        -5.3787152029        4.4663922022       -9.5658216634
 C        -5.3651900416        6.8566374046       -9.7767861707
 C        -6.1983540503        6.6406019802      -11.0994548620
 O        -5.6615014037        6.9460852706      -12.0973487278
 C        -7.5248567627        5.9629223386      -11.1317204533
 C        -8.4523393150        6.6970559575      -12.0439088833
 C        -8.7513552355        6.0230173456      -13.4084968369
 O        -9.2265246070        4.9312819774      -13.4522998938
 C        -8.4757059784        6.7131082434      -14.8225693155
 C        -7.3870827853        5.9787227385      -15.6891528803
 O        -7.7226732951        5.1796238039      -16.5684421271
 C        -5.9352370063        6.3754582889      -15.3582115136
 C        -4.9341938796        5.1759325158      -15.3123249397
 C        -5.4593091094        4.0150423539      -14.6022185374
 O        -6.4696630465        4.1142081803      -13.8726387514
 C        -4.7142270763        2.6916669441      -14.7538400125
 C        -5.6367732217        1.4998669570      -15.0135680254
 O        -6.5465761347        1.6758047351      -15.8045740067
 C        -5.5065339323        0.1865261703      -14.2921930823
 C        -6.2552516575        0.4348355326      -12.8831292759
 C        -7.0923113388       -0.7833438642      -12.5828711958
 O        -6.7046457610       -1.9311923905      -12.7562374605
 C        -8.6653885881       -0.4549118296      -12.1549992274
 C        -9.1633573137        0.2363755006      -13.3869906055
 O        -8.8675593186        1.4516601862      -13.4802863958
 C        -9.9329423276       -0.5605880074      -14.4590059971
 C        -9.9352667109        0.1010287466      -15.8958044760
 C       -11.0288184755        1.1485228136      -16.0575057688
 O       -10.7602610784        2.3283168125      -15.9000125023
 C       -12.4046397162        0.6315608154      -16.5422506280
 C       -12.5862323031        0.6012256560      -18.0417904014
 O       -12.1634379602       -0.3293674496      -18.6719368636
 C       -13.1931041905        1.8300203141      -18.7746149860
 C       -13.3434015406        1.5108729787      -20.3004837998
 C       -13.9679310239        2.7124397251      -21.0318945439
 O       -14.5338863651        3.6400845449      -20.5021662021
 C       -13.4148433580        2.8473559805      -22.5302863739
 C       -11.8733992233        3.1824583096      -22.3158001164
 O       -11.0780311735        2.3084839066      -22.0461875469
 C       -11.5515019920        4.6587429102      -22.2904202823
 C       -13.5334435837        1.5763446713      -23.3847644305
 C       -14.1748283703        3.9899965212      -23.2736536936
 C       -12.6606927071       -0.8056504357      -16.0812373938
 C       -13.3933341425        1.5734313628      -15.9479371505
 C        -9.4046887037       -1.8151086267      -11.8322934708
 C        -8.5420828865        0.3852723099      -10.8172458855
 C        -3.8054207747        2.7142754645      -16.0907612330
 C        -3.7612799925        2.6181028001      -13.5278906681
 C        -9.8264168707        6.5698455046      -15.4694786175
 C        -8.0665949215        8.1794132472      -14.5672945561
 C        -6.2278132477        7.0517046725       -8.5200514534
 C        -4.3650367313        7.9640338711      -10.0687597831
 C        -0.3552552437        2.7361187021       -7.6063182256
 C         1.3250501485        2.6572009795       -9.3711659882
 C         2.5198354058       -3.4510876521      -11.3497391827
 C         0.1200397161       -3.2053311740      -11.3225139446
 C        -0.0646585464       -5.7632459048       -5.3429920017
 C         2.3262592488       -5.3422581899       -4.1661016093
 C         0.0512955030      -12.7803909664       -3.0668777955
 C        -1.2934486799      -11.5322988532       -1.3097829460
 C         3.2312215426       -7.8079108714        2.5901908602
 C         3.9040977008       -6.1791233067        0.6624465881
 C         8.7460240359       -8.3281930614       -2.7022166398
 C         6.4294593192       -7.5484005091       -3.4780960331
 H         7.7290234619      -12.0279180917       -3.9972586163
 H         9.0067572315      -10.7975374344       -3.5842951017
 H         8.3023047908      -10.6087731422       -5.0007400363
 H         8.3547342898       -8.2654730564       -0.1811856214
 H         7.5983672322       -9.6260812319        0.3245699133
 H         6.6335142441       -6.7634404761        0.5222047630
 H         7.0020366946       -7.8330509615        1.9200891200
 H         2.7587929118      -10.1737463682        1.2288879569
 H         3.4692935280      -10.5656192330       -0.2635829853
 H         0.6068651185       -9.5649058257       -0.2474522586
 H         0.9540128523      -11.2240140165        0.5381104754
 H        -0.1880443001      -10.6834661825       -5.4897724719
 H         1.3758080877      -10.3385639987       -4.5181953380
 H        -0.6206433173       -8.1477151249       -4.8798544742
 H         0.2190116959       -8.4473079784       -6.3113354312
 H         3.5545839818       -4.6759835804       -6.4179576647
 H         1.7788642306       -4.0532512701       -6.3555794894
 H         3.1962998926       -4.6926793687       -8.9977313267
 H         3.3385324970       -3.1102069169       -8.3317009794
 H         0.5739470837       -0.2114011895       -8.4488798409
 H        -0.3445426826       -1.5861692232       -9.2777643281
 H        -1.0053219548       -0.2461348761      -11.1187100302
 H         0.4739725279        0.6862861778      -10.9892327934
 H        -2.5617136167        4.3259774189       -8.2343895394
 H        -3.1854743859        3.1828287686       -9.4899233280
 H        -2.9031961825        5.4190918811      -11.0605764084
 H        -2.8434214062        6.1622280912       -9.3751919896
 H        -8.0412482322        6.0651626649      -10.1428127264
 H        -7.4909676009        4.8570315744      -11.4739442203
 H        -7.9970593036        7.7680463659      -12.2204256264
 H        -9.4574115402        6.9831220130      -11.6683852269
 H        -5.8863881555        6.7616986638      -14.3280082716
 H        -5.6210289977        7.2055576848      -16.0492615709
 H        -4.2234361224        5.5226802393      -14.5712840591
 H        -4.2945046639        4.9601244113      -16.2344983811
 H        -4.5543533065       -0.2489222478      -14.0346413910
 H        -6.0585548810       -0.5506422635      -14.8414867958
 H        -6.6776797006        1.4091541932      -12.8319902522
 H        -5.4333576546        0.6077901270      -12.1637389996
 H       -10.8983040263       -0.6426176698      -13.9775522380
 H        -9.5146356478       -1.5461938909      -14.6341731949
 H        -9.9550651769       -0.6730795573      -16.6623247366
 H        -8.9481387030        0.6484260861      -16.1810623588
 H       -12.3234725954        2.5498136763      -18.5500530522
 H       -14.0670904031        2.1591929675      -18.3238047819
 H       -14.0815822626        0.7075567903      -20.4514232203
 H       -12.3696043978        1.2065454428      -20.7459013048
 H       -11.8145842673        4.9955658951      -21.3458602900
 H       -12.1627699430        5.1353516428      -23.0883859497
 H       -10.4792000010        4.8469071765      -22.5232745746
 H       -14.5044432199        1.1486194591      -23.3425310446
 H       -12.8732424092        0.8575711607      -22.9991296803
 H       -13.1805567242        1.7311273693      -24.4166077334
 H       -14.5390422343        4.8045005597      -22.6169712887
 H       -15.0213704207        3.6026442559      -23.8306280201
 H       -13.4659274422        4.4119380614      -23.9124982500
 H       -13.6135697210       -0.9965101388      -16.5493520711
 H       -12.7983321910       -0.7217893304      -14.9549524429
 H       -11.9554794885       -1.5344129582      -16.4520648364
 H       -13.1810148527        2.5907582976      -16.0791535722
 H       -13.5810046652        1.5407670009      -14.8598801425
 H       -14.3225966526        1.5223953357      -16.5430129378
 H        -9.0703661408       -2.4346762069      -12.6964373020
 H       -10.4809962764       -1.6625643392      -11.8269733615
 H        -9.0479071679       -2.1727955618      -10.8980915756
 H        -7.6053771104        0.3276590334      -10.3591634558
 H        -9.2109014629        0.0714060272       -9.9841496481
 H        -8.8972602160        1.4543804597      -10.9757402627
 H        -3.3366230557        1.7275541214      -16.2218741249
 H        -2.9203790844        3.4101214389      -15.9740359609
 H        -4.4103028886        2.9863751199      -17.0101051022
 H        -3.5933298500        1.6264955170      -13.2099226514
 H        -4.0967408415        3.1906369305      -12.6427573399
 H        -2.8536232504        3.0903531207      -13.8979022477
 H       -10.6181617659        6.7725155869      -14.7541046419
 H        -9.8712673406        5.5448031810      -15.9045752539
 H       -10.0826113874        7.3202900238      -16.2324497436
 H        -7.0628992261        8.3665260938      -14.1608781303
 H        -8.8313274025        8.6177377255      -13.9831815630
 H        -8.0022434103        8.7496023411      -15.4854456142
 H        -6.0552694179        6.3039612635       -7.8065587126
 H        -7.2702835582        6.9575372630       -8.7885171572
 H        -6.1078600348        7.9991713131       -7.9599793391
 H        -3.6341561962        7.8521755722      -10.8573464628
 H        -3.7165969702        8.2635119008       -9.2034248320
 H        -4.9395335296        8.8707643847      -10.2705021199
 H        -1.3808465744        2.5971258553       -7.2521303941
 H         0.0266855190        3.6855602920       -7.1408876414
 H         0.2099092574        1.9111241439       -7.0539472868
 H         1.6619900479        3.6629006050       -9.1468566883
 H         1.5504551230        2.4568210478      -10.4469251772
 H         1.7744498878        1.9234534236       -8.7662368693
 H         2.3787858168       -4.4970842005      -11.4471207343
 H         3.4629797148       -3.2532718259      -10.9756540502
 H         2.6150243992       -2.9591656544      -12.3249161034
 H         0.0419471392       -4.2507402553      -11.6374634360
 H        -0.0815507393       -2.5750080051      -12.1464486037
 H        -0.7638532041       -3.0524807053      -10.6335853217
 H        -0.3851239908       -5.8204204445       -4.2981512744
 H        -0.6371344619       -6.3858060265       -5.9233387906
 H        -0.1461708891       -4.7180417190       -5.6711367431
 H         2.3219087771       -4.3118269682       -4.5320217159
 H         3.3532186111       -5.7416019078       -4.1923177896
 H         1.8853463475       -5.3780023352       -3.1435970939
 H         0.8347518244      -12.8341234896       -3.8146221001
 H        -0.9378116394      -13.1248546502       -3.4214544686
 H         0.3334968869      -13.5166002135       -2.2893900977
 H        -1.5663767206      -10.6222258388       -0.8263443693
 H        -1.1626663664      -12.2704629222       -0.4841034273
 H        -2.1586756737      -11.8958985887       -1.8343569029
 H         3.7007260702       -7.0158895263        3.1513904059
 H         3.6431784401       -8.7409075739        2.9604678243
 H         2.1437225247       -7.8442633709        2.4623836591
 H         4.6226710886       -5.7497837482        1.3470648557
 H         2.9484620787       -5.7263028284        0.8358503191
 H         4.4088379467       -6.2213046999       -0.3025645241
 H         9.0687633153       -8.1853714576       -3.6869603620
 H         9.3293032839       -9.1112323743       -2.2190828185
 H         8.8762316261       -7.3222207422       -2.2395212361
 H         6.8133263993       -6.6090919746       -2.9902598070
 H         5.3859145437       -7.7102628693       -3.2103433692
 H         6.4721023599       -7.5208613104       -4.5469093541
 Na        3.9431523294       -9.4612283793       -2.9487933241
 Na       -8.7051058907        3.3472646706      -15.1128491370
