232

 C       -13.0564321980      -16.4990073585       -2.4856788488
 C       -13.8372269072      -15.7610232289       -3.5707865070
 O       -13.4786039054      -14.7330219018       -4.0928384301
 C       -15.4127732777      -16.2073724613       -3.7678983200
 C       -16.0008673554      -15.5954153154       -5.0367739766
 O       -16.4048794196      -14.4946558945       -4.9560119140
 C       -16.1561710712      -16.2822797378       -6.4464692926
 C       -16.3928468971      -15.3313636261       -7.6130647989
 C       -15.1476867344      -14.3652252743       -7.7328190201
 O       -14.0899146137      -14.4932520275       -7.1165030025
 C       -15.2444862464      -12.9734691206       -8.5443792647
 C       -15.8269721524      -11.9649266346       -7.5395404198
 O       -16.5692824882      -12.3392585585       -6.6334556831
 C       -15.5960102554      -10.4902201299       -7.8363712206
 C       -15.6588178561       -9.5444132783       -6.6399663237
 C       -14.5423672941       -9.6999576728       -5.6080523024
 O       -14.1069018660      -10.8282512359       -5.4194018691
 C       -14.0743409800       -8.5171463841       -4.7357632063
 C       -13.3145061105       -7.6548430850       -5.8062910718
 O       -13.4416470733       -7.7967967784       -7.0092472452
 C       -12.1160599611       -6.8101440039       -5.2533705839
 C       -11.8167238502       -5.6025016249       -6.1920743891
 C       -13.0812240982       -4.7135091964       -6.3865460868
 O       -14.1791367031       -5.1071027870       -6.0971711330
 C       -12.8357913187       -3.2826994976       -7.0400426729
 C       -11.6195786672       -2.4401168874       -6.4381145617
 O       -10.8621934064       -2.8837747149       -5.6589549955
 C       -11.4167088457       -1.0976134650       -7.1106933078
 C        -9.8971769219       -0.6687951682       -6.9746741265
 C        -9.7272293936        0.7262962979       -6.2994051621
 O        -9.8838091052        1.7498205590       -7.0148996084
 C        -9.1672004167        0.8887394325       -4.8573654482
 C        -7.6396617533        0.5076119371       -5.0104090383
 O        -7.1633723369       -0.5077178614       -4.4970483896
 C        -6.6883940686        1.4792368490       -5.6865648183
 C        -7.0431527167        2.1651901243       -6.9569036852
 C        -6.2434104645        3.4309444818       -7.2225199484
 O        -5.4867709453        3.9542223007       -6.3871726881
 C        -6.2185808612        4.0615759219       -8.6160848167
 C        -5.0746899882        3.2099779949       -9.2886233945
 O        -5.3855828935        2.1498091735       -9.7976310474
 C        -3.6058186904        3.5918982059       -9.0853849241
 C        -2.7010854883        2.2018454264       -9.3013338311
 C        -1.5190230926        2.3879348900      -10.1665591238
 O        -1.6248318679        2.7189001809      -11.3835960302
 C        -0.0688865970        2.0040390027       -9.6116707323
 C         0.9670284797        2.0325264087      -10.7327471111
 O         1.7538610176        1.1557232585      -11.0091761635
 C         1.0394960538        3.3453271044      -11.4554477098
 C         2.4105009918        4.0170741589      -11.3702174618
 C         2.3616533861        5.4545040419      -11.5852243847
 O         1.7735885760        6.1991652566      -10.8916437914
 C         3.2251239184        6.0602379597      -12.8858990132
 C         3.4379199026        4.8907718151      -13.9802229602
 O         4.4966026197        4.3639903842      -13.9093443550
 C         2.2476716378        4.5175010041      -15.0270098882
 C         2.3491896629        5.1732922873      -16.4828956006
 C         3.6058976637        4.5577188247      -17.0898219498
 O         4.0751438126        3.4932882886      -16.6988669159
 C         4.1952848375        5.2765432947      -18.3695746317
 C         5.7385520118        5.2380069151      -18.2650221328
 O         6.3763611360        5.1297532875      -19.2501178248
 C         6.4307191864        5.6152332762      -16.9674187996
 C         7.9295163096        5.3258225786      -17.1250494886
 C         8.1206931573        3.7863054782      -17.2889318247
 O         7.2393260258        2.9613320505      -17.1197093027
 C         9.5757578486        3.3235392812      -17.7116660962
 C        10.5224176016        3.4737279174      -16.4544737315
 O        10.4448757221        4.3796517927      -15.6089340452
 C        11.6154276330        2.4558799563      -16.3068669923
 C        12.2550352061        2.3417360948      -14.9395884821
 C        11.2957085554        2.2429726993      -13.7578482309
 O        10.3331193265        1.5376480528      -13.8715984777
 C        11.6818482242        2.9529544496      -12.3992315793
 C        10.6147117111        2.3219949172      -11.3439544629
 O        10.8039789587        1.3046750585      -10.6969203357
 C         9.1369197668        2.8861540140      -11.3938343513
 C         8.1227934074        1.7753065993      -11.2782017103
 C         7.2581203286        1.5009526822      -12.4043774813
 O         7.0336894879        2.3751302131      -13.2251887689
 C         6.3396695431        0.2610760813      -12.5151686244
 C         6.3650301463       -0.3707098315      -14.0254782227
 O         5.9265198546        0.3237333097      -14.9817569031
 C         6.6702357101       -1.7763813463      -14.2701513551
 C         6.6567549759       -0.8308058151      -11.3971538746
 C         4.8090619512        0.6398268974      -12.3205457213
 C        13.1786664000        2.5086377120      -12.0549561100
 C        11.5978247362        4.4530687052      -12.5568751857
 C         9.4438144065        1.8573560591      -18.2899968931
 C        10.3007182922        4.3563294555      -18.6749379942
 C         3.5705272956        4.5121292918      -19.6399580450
 C         3.9551323133        6.8288148547      -18.5058287151
 C         2.5034137493        7.3030965775      -13.2996532358
 C         4.6315335466        6.4592867779      -12.3265478277
 C         0.1814471941        3.1518805481       -8.6534439951
 C         0.0530831449        0.5452024097       -8.9508134166
 C        -7.5270339530        3.7797806018       -9.3890732075
 C        -6.0561383451        5.5825775850       -8.5306382632
 C        -9.2268616340        2.3200920969       -4.3382896186
 C        -9.6967017637       -0.1756977102       -3.8795238564
 C       -12.5302720630       -3.3976303710       -8.5952679523
 C       -14.1755822198       -2.5779759431       -6.8977934434
 C       -15.1953215682       -7.6525783494       -4.1632341499
 C       -13.1378151285       -9.0065250689       -3.5722747102
 C       -13.7314723661      -12.5254964013       -8.9550983708
 C       -16.1631974554      -13.2119494959       -9.8317135499
 C       -15.4659732262      -17.8218262146       -3.8429731467
 C       -16.2116840831      -15.6477676046       -2.6199302151
 H       -12.7382506981      -17.4504993175       -2.8470744741
 H       -13.6881386125      -16.6856600932       -1.6151353503
 H       -12.0819317202      -16.0121796674       -2.2380616455
 H       -16.8840753088      -17.0600850222       -6.4163204147
 H       -15.2291059950      -16.7836401430       -6.6818835644
 H       -17.3562998158      -14.8243557629       -7.4985102185
 H       -16.4747014801      -15.8845858512       -8.5361601954
 H       -16.2873280069      -10.1158957627       -8.6171327339
 H       -14.5168692418      -10.3907138593       -8.2616573100
 H       -16.5090907663       -9.8615240569       -6.0042235732
 H       -15.6775191257       -8.5279916342       -6.9640628636
 H       -11.1886361022       -7.4340237177       -5.1739107132
 H       -12.3714461272       -6.2489512642       -4.3304038733
 H       -11.4634775652       -5.9919460666       -7.1906744830
 H       -11.0377402935       -5.0055485261       -5.7903037497
 H       -12.0422614459       -0.4399438642       -6.4400052101
 H       -11.6986577847       -1.2558123155       -8.1350551857
 H        -9.5229744641       -0.6276009285       -8.0271259548
 H        -9.3150680592       -1.4179510471       -6.4509299259
 H        -5.6990031524        0.9752439360       -5.8663999999
 H        -6.3269633452        2.1905185401       -5.0109094151
 H        -8.1179651126        2.2767555708       -6.8741972180
 H        -6.8513364420        1.6161234661       -7.8882411218
 H        -3.4544230716        4.0807154745       -8.1154721897
 H        -3.3324799386        4.3246963972       -9.9422220265
 H        -3.3325666355        1.4445445889       -9.8641723179
 H        -2.3820065598        1.9026686098       -8.3193341249
 H         0.2318260441        3.9228352187      -11.0194774097
 H         0.7897132091        3.0991308676      -12.4710145316
 H         3.1105436013        3.5349343940      -11.9709286504
 H         2.7214959326        3.8031941966      -10.2891554275
 H         1.2676610637        4.8538088676      -14.6354374272
 H         2.0465639726        3.3971929711      -14.9605557719
 H         2.6629328347        6.1621819668      -16.3106206947
 H         1.4529372025        5.0349672063      -17.0707297320
 H         6.0547026668        5.0093232378      -16.1714275649
 H         6.2337864112        6.6940608196      -16.7343750714
 H         8.4750992739        5.4268253247      -16.2533559627
 H         8.3135028103        5.9816384195      -18.0171280386
 H        12.3754409179        2.8173441759      -17.0603747063
 H        11.0622772300        1.5465661939      -16.4932216686
 H        13.0357974106        3.1302069662      -14.8683287000
 H        12.8974874156        1.4841016226      -14.9120852998
 H         8.9586278200        3.4370971560      -12.3486432190
 H         9.0547781266        3.6433845944      -10.5834220214
 H         7.4230034936        1.9744560092      -10.4078354029
 H         8.7113854921        0.9014133871      -10.9597308055
 H         5.7113108125       -2.3411259526      -13.9352586245
 H         7.5289627974       -2.1820289940      -13.6608335334
 H         6.9774653698       -1.8661959753      -15.2972572051
 H         5.9677921115       -1.6453116155      -11.2509011063
 H         6.6375852892       -0.2384646188      -10.4496658471
 H         7.6819352292       -1.3021032088      -11.4924359619
 H         4.7400717256        1.5980675605      -11.8121365123
 H         4.2779447648       -0.1473901925      -11.7231510125
 H         4.4728866359        0.6674008227      -13.2828778924
 H        13.7726245083        3.0254700538      -12.8001710757
 H        13.2720933602        1.4779746794      -12.0213126832
 H        13.4066091067        2.9212879224      -11.0875031495
 H        12.2347624236        4.7392881670      -13.4053531600
 H        11.7929259412        5.0709199925      -11.6663021914
 H        10.5655664524        4.7523507172      -12.7758121895
 H         9.3554774345        0.9888401430      -17.6152731123
 H        10.2431445029        1.6285812528      -18.9582318201
 H         8.4443240066        1.6715270710      -18.6892944130
 H        10.3974436580        5.2643536080      -18.1417249129
 H         9.6852585031        4.5883383854      -19.5243708721
 H        11.3344157953        4.1083533789      -18.9517524432
 H         3.2055878345        5.3252101329      -20.3719981396
 H         2.7069140668        3.9700559099      -19.3542519373
 H         4.2688235163        3.9553702217      -20.2700654121
 H         4.2162758862        7.1610571455      -19.5303013079
 H         4.5207656669        7.5070005294      -17.8427287089
 H         2.9378130077        7.0370108001      -18.2450648540
 H         2.5331471533        8.0178902974      -12.4036857901
 H         1.4781030724        7.0213793357      -13.4734293594
 H         2.9248274150        7.8409301282      -14.1507210479
 H         5.2896116648        7.1717835314      -12.8710740024
 H         5.3632450086        5.7245701954      -12.0396964677
 H         4.5668771821        6.8305529513      -11.2951354801
 H         1.1811135875        3.1226902206       -8.1385804794
 H        -0.6468640906        3.0102010200       -7.7914349350
 H         0.0434619432        4.1102805715       -9.1661430148
 H        -0.8830247182        0.2049179125       -8.3482575163
 H         0.9126681765        0.5010747134       -8.3207482607
 H         0.2772564810       -0.1364525423       -9.8107687122
 H        -7.6540219544        2.7091112051       -9.6069208950
 H        -7.3176663241        4.2162298052      -10.3598139080
 H        -8.4409393176        4.2117503288       -8.9558580488
 H        -5.4374517952        6.0719952832       -9.2398081740
 H        -5.7088727287        5.9433077612       -7.5259959967
 H        -7.0175285821        6.0463538324       -8.7088187876
 H       -10.2521451479        2.6430796252       -4.2242499728
 H        -8.8353386522        2.9111601850       -5.1461113288
 H        -8.7786819533        2.4697547545       -3.3348630692
 H        -9.1936734852       -0.0088149360       -2.9071231719
 H        -9.7041279168       -1.1752587138       -4.2419483401
 H       -10.7474146983       -0.0604713213       -3.6976662131
 H       -12.4136296672       -2.3800970472       -8.9235782916
 H       -13.4303624130       -3.8634168385       -9.0122114974
 H       -11.6776262185       -4.0064579983       -8.8202382008
 H       -14.9507843964       -3.0762028403       -7.4491389931
 H       -14.0778083224       -1.4899628782       -7.1063230876
 H       -14.2539293620       -2.5474143792       -5.8619725872
 H       -15.6916642223       -7.0416819001       -4.9317745412
 H       -15.0476907564       -7.0464525648       -3.3174098235
 H       -16.0430775154       -8.2482503117       -3.7371523865
 H       -12.1612637864       -9.2702668928       -3.9050052310
 H       -13.7368059894       -9.8784797592       -3.1682741953
 H       -12.9367843905       -8.2322973078       -2.9435645381
 H       -13.2201493723      -12.4189459552       -7.9889298776
 H       -13.7314760237      -11.6110934905       -9.5663364424
 H       -13.3160618350      -13.4043173468       -9.4984748886
 H       -17.2218976887      -13.0281001712       -9.5515356600
 H       -16.0717878482      -14.3041065115      -10.1670312473
 H       -15.7321178856      -12.6137713824      -10.6913697105
 H       -14.8884944949      -18.1049839339       -4.7503091132
 H       -16.4624960617      -18.1370111110       -4.0506456715
 H       -15.1618371537      -18.3288175128       -2.9869360526
 H       -16.4029414546      -14.5946254120       -2.6614351840
 H       -15.7722285491      -15.9218493757       -1.6729880744
 H       -17.2276394474      -16.0897998427       -2.6331868438
 Na      -14.7338546248      -13.0740425416       -5.0240869635
 Na        5.8889020618        2.7468055136      -15.2145540499
