232

 C         8.0416869116      -11.5623180681       -3.3298958393
 C         7.0619477700      -10.3135787445       -3.3670266920
 O         5.9068388737      -10.4861320830       -3.7217495986
 C         7.4639399095       -8.9094316460       -2.7702415398
 C         6.8106631449       -8.7947098894       -1.3407150805
 O         5.6627997099       -9.0783978873       -1.1364635041
 C         7.6121564535       -8.4057301373       -0.0731852112
 C         6.7504874478       -7.8068755588        1.0149098064
 C         5.3892750162       -8.5781471028        1.3140228773
 O         5.4711842363       -9.6687198358        1.8117470367
 C         3.9377424799       -7.8281633193        1.0999931377
 C         3.2356783442       -8.4668948775       -0.0828813165
 O         3.2052538840       -7.9415634439       -1.2078020111
 C         2.7386295221       -9.8943125103        0.0531734112
 C         1.3108322128      -10.1353186455       -0.6212005843
 C         1.2789419215      -11.0588154857       -1.9099102498
 O         2.2584831881      -11.2610445637       -2.5998793278
 C        -0.1098062350      -11.4120001227       -2.3906075755
 C        -0.5856381327      -10.1570576538       -3.3150995994
 O        -1.2525870069       -9.2653537962       -2.8091541421
 C         0.1669053480       -9.8785047154       -4.6755812834
 C         0.1276160589       -8.4484732502       -5.1190421772
 C         1.5184937783       -7.7574623963       -4.9110862060
 O         2.4837805700       -8.4599314636       -4.5304296925
 C         1.7418185796       -6.3081122680       -5.2659567102
 C         2.2717835997       -5.9940433805       -6.7130337444
 O         2.0901043463       -6.7221227992       -7.6525073702
 C         2.7833197487       -4.5107394969       -6.9158587725
 C         2.7948765153       -4.1738187568       -8.3960864404
 C         1.4046998978       -3.8133058150       -9.0308060949
 O         0.3846776421       -4.0019377650       -8.4229028108
 C         1.4462562758       -3.1135591206      -10.5760919810
 C         1.4519876210       -1.4741762941      -10.4412154224
 O         2.3948800138       -0.8448984793      -10.9345360328
 C         0.4170271451       -0.8447199425       -9.6019316845
 C        -0.3072664213        0.3016900456      -10.3480455674
 C        -0.9928359619        1.2476796921       -9.4144203698
 O        -2.1037692031        1.0145467192       -8.9535735859
 C        -0.3639668664        2.6331338200       -9.1175997657
 C        -1.2353234418        3.7449982569       -9.8507911121
 O        -0.6769440801        4.6721366303      -10.4668414264
 C        -2.7863067649        3.8327429050       -9.7081292201
 C        -3.2838604036        5.2656409548       -9.9125027857
 C        -4.8070362208        5.3917320671       -9.8289910105
 O        -5.4685239664        4.4223277424       -9.6059932366
 C        -5.4632538635        6.8315606657      -10.0625986944
 C        -6.3988305671        6.8531881884      -11.3751695847
 O        -6.0671902979        7.5551976641      -12.2815308126
 C        -7.6831512433        6.0329696935      -11.2257547083
 C        -8.8471522474        6.6098299690      -11.9675473653
 C        -8.8694299627        5.9904809593      -13.3689005633
 O        -8.8479694325        4.7912094515      -13.4823392022
 C        -8.7647055006        6.7961138829      -14.7966097850
 C        -7.6598304205        5.9236737077      -15.5628642897
 O        -7.8955995575        4.8884688815      -16.2086813821
 C        -6.1183046380        6.4255085647      -15.5094195241
 C        -5.1969140899        5.2160444148      -15.9121206183
 C        -5.5514558030        4.0738149767      -14.9641703431
 O        -6.4778111702        4.3076223395      -14.2029377889
 C        -4.7365501923        2.7835004217      -14.7600750106
 C        -5.8287249735        1.6632845788      -14.8769654419
 O        -6.8182655112        1.8237145867      -15.5861468055
 C        -5.6817565630        0.3173136619      -14.1929066856
 C        -6.0981242697        0.1791262076      -12.7276041899
 C        -7.1519845544       -0.8538890713      -12.4175520964
 O        -6.7448480816       -2.0093730302      -12.4763161572
 C        -8.6052550502       -0.5587799378      -12.0418362152
 C        -9.1455874414        0.2595821565      -13.3369157758
 O        -8.8608083362        1.4627422009      -13.2972604910
 C        -9.8200746240       -0.3878236271      -14.5768432140
 C        -9.8414953544        0.2601979514      -16.0019075486
 C       -11.0835303995        1.3019123082      -16.0625351199
 O       -10.9307865892        2.5152816443      -15.8731398451
 C       -12.5623371970        0.7894877438      -16.3405620582
 C       -12.5925760908        0.7232132641      -17.9140850779
 O       -12.0429052789       -0.2200303324      -18.4253645013
 C       -13.2016939529        1.9234462459      -18.7821217388
 C       -13.3125758371        1.6608398000      -20.2215088420
 C       -13.8072512410        2.8540745487      -21.0046629099
 O       -14.5043491417        3.7061916179      -20.4865335409
 C       -13.2282880949        2.9971193258      -22.4673671560
 C       -11.6406276902        3.2305539060      -22.2283023646
 O       -10.9169928363        2.2758746497      -22.3089935519
 C       -11.1319083585        4.6359908725      -21.8489739050
 C       -13.3631229591        1.6390404269      -23.2532372694
 C       -13.9563118740        4.0794440883      -23.1633075613
 C       -12.8982558838       -0.7231370186      -15.8711513286
 C       -13.5944619302        1.7954732646      -15.7701263632
 C        -9.4245453901       -1.9095984969      -11.8421288963
 C        -8.8290728654        0.3807980194      -10.8809413778
 C        -3.6260719728        2.4945186919      -15.8750346594
 C        -4.0983410104        2.6765931049      -13.2981560853
 C       -10.0643879342        6.6114225045      -15.6866610589
 C        -8.4393496399        8.2789940946      -14.6472009730
 C        -6.3269889972        7.1498962857       -8.7896830130
 C        -4.3980225139        7.9292830000       -9.9896078554
 C        -0.3526320549        2.8898502689       -7.5895829024
 C         1.0749324090        2.9798823097       -9.5304065729
 C         2.6091552502       -3.5978057427      -11.3533911994
 C         0.2047928086       -3.7510513309      -11.2537834383
 C         0.4834275535       -5.4576076386       -4.9893109532
 C         2.7823190335       -5.8762470716       -4.1016286427
 C         0.0578563333      -12.6047256726       -3.3958579189
 C        -1.0673015103      -11.8185919710       -1.2743966301
 C         2.9862280459       -7.8560095342        2.3218655908
 C         4.0834792030       -6.3344294082        0.7385676191
 C         8.9886189141       -8.6923652914       -2.7835851628
 C         6.8540818361       -7.7840767020       -3.6116669922
 H         7.5164192647      -12.4453103840       -2.7927855701
 H         9.0137934739      -11.3947400313       -2.8065907987
 H         8.3216814540      -11.7449176850       -4.3901825294
 H         8.4499686982       -7.6686419354       -0.3147283410
 H         8.1545385434       -9.2738177324        0.4409914835
 H         6.4611040932       -6.8152092653        0.7045776773
 H         7.3797528580       -7.8085922508        1.9254191421
 H         2.6028172669      -10.1404470324        1.1374777820
 H         3.4891131071      -10.7173515369       -0.3013006369
 H         0.9929767147       -9.1476514348       -1.0166157549
 H         0.7200634869      -10.6128893055        0.1790285385
 H        -0.2720143496      -10.4379437838       -5.4798127555
 H         1.1888196331      -10.1512335695       -4.5559629687
 H        -0.7338954737       -7.8892311583       -4.7150403786
 H         0.0108301809       -8.4391315962       -6.2352225200
 H         3.7367388612       -4.4553920867       -6.4465477149
 H         1.9855466273       -3.9790254827       -6.3799579180
 H         3.0044621955       -4.9593051758       -9.1080448035
 H         3.5767011926       -3.4144070878       -8.7080042936
 H         0.8430442356       -0.6101463602       -8.5677169278
 H        -0.4333921108       -1.4814935262       -9.3078222315
 H        -1.0495371770       -0.1479635980      -10.9522067179
 H         0.3893563941        0.7833913029      -11.0068308090
 H        -3.1097658896        3.4883753800       -8.6398655014
 H        -3.0725800717        3.0959415067      -10.3834549951
 H        -2.8739509712        5.6460843199      -10.8105973147
 H        -2.8771041577        5.8050422034       -9.0188618625
 H        -8.0751085163        5.9977179931      -10.2542644967
 H        -7.4574513451        5.0266852356      -11.6160806991
 H        -8.7720077376        7.7136796978      -12.0796124488
 H        -9.7584984486        6.4712858442      -11.4365354724
 H        -5.8342132362        6.8253031547      -14.4669295326
 H        -5.8747979752        7.2748217075      -16.1391556038
 H        -4.2317917931        5.5440840643      -15.6617931323
 H        -5.1261654481        5.0583193686      -16.9929236078
 H        -4.5604936889        0.0209051894      -14.1422942546
 H        -6.0709443997       -0.4498324906      -14.8235459566
 H        -6.1344543183        1.2263583741      -12.2906432692
 H        -5.1766165942       -0.1262228904      -12.1797734889
 H       -10.8670980730       -0.6647108496      -14.3641012750
 H        -9.2422095137       -1.3690491634      -14.6412258794
 H        -9.8617151790       -0.5325520445      -16.7253993479
 H        -8.9557110585        0.9067873383      -16.2471354721
 H       -12.4818146163        2.7051222240      -18.4884091732
 H       -14.2257862048        2.0568344251      -18.3978843329
 H       -14.1293009592        1.0033751466      -20.2854229684
 H       -12.4034445787        1.2333610279      -20.5570726070
 H       -11.4392796683        4.8437915995      -20.8503297456
 H       -11.5349139858        5.3451470107      -22.6344829591
 H       -10.0280464544        4.6285864153      -21.7794639732
 H       -14.4473769591        1.3039041233      -23.2495449728
 H       -12.8664747767        0.7466452300      -22.9092201055
 H       -13.1069822100        1.8302004699      -24.3752426321
 H       -13.6593807227        5.0999114843      -22.8237592763
 H       -15.0324865758        3.9446305677      -23.0240800487
 H       -13.7748244665        3.9783853677      -24.2519033865
 H       -13.9355260411       -0.8182606755      -16.0871389372
 H       -12.8670773058       -0.7069168019      -14.8024074465
 H       -12.2452224526       -1.4470081189      -16.3433528436
 H       -13.5706561943        2.7837651675      -16.1992182866
 H       -13.2438555887        2.0107371611      -14.7661032880
 H       -14.6580468819        1.6252326270      -15.8397499545
 H        -9.2479906210       -2.5185622621      -12.7079893734
 H       -10.4607135185       -1.5958614424      -11.6154261740
 H        -9.0696848697       -2.2599292477      -10.9040601481
 H        -9.2382482270       -0.0762369136      -10.0671000083
 H        -9.6171429996        1.1387878140      -11.1245004082
 H        -7.9303757822        0.9839687376      -10.6319142336
 H        -2.9480488630        1.7499242991      -15.6529602413
 H        -3.0031449308        3.4489753003      -15.8309093767
 H        -3.9507628340        2.3485171817      -16.8823696850
 H        -3.8412955961        1.6928132272      -13.0448550877
 H        -4.7556926415        3.0544545304      -12.4522604336
 H        -3.1824847119        3.2410818897      -13.3870476013
 H       -10.8616930339        7.3332610880      -15.4415324148
 H       -10.4230356281        5.6290589739      -15.6185175827
 H        -9.8984357604        6.8755770822      -16.7105065177
 H        -7.5995749671        8.4489852731      -13.9516480565
 H        -9.3377986754        8.7314095755      -14.2695937130
 H        -8.1897940965        8.8352338304      -15.5866629262
 H        -7.2612490038        6.6572382677       -8.8002925802
 H        -6.5471700204        8.2008332855       -8.5871056242
 H        -5.8193526514        6.6064290116       -7.9231755672
 H        -3.6571715316        7.9762169473      -10.7379011673
 H        -3.7138270535        7.7931023459       -9.1207541520
 H        -4.7661119978        8.8828927322       -9.7853611760
 H        -1.1336256516        2.5843931049       -7.0051393196
 H        -0.1885097879        3.8813467399       -7.2731649606
 H         0.6218495796        2.4416520441       -7.3094162814
 H         1.3748574976        3.7493468389       -8.8816590606
 H         1.1349348742        3.3412148586      -10.5680431754
 H         1.6555238702        2.1445835143       -9.3759267322
 H         2.6857645978       -4.7087734065      -11.1905782700
 H         3.5253969900       -3.1133078547      -10.9996816040
 H         2.6542024823       -3.3180914850      -12.3994151901
 H         0.2464635473       -4.8551023578      -11.3320958587
 H         0.0494529769       -3.3185917336      -12.1962684896
 H        -0.7260578718       -3.3168663591      -10.7633620698
 H        -0.1419589380       -5.7477681666       -4.1112903398
 H        -0.0780389006       -5.4449213070       -5.9223418281
 H         0.9247355698       -4.4493074946       -4.8856155001
 H         2.8538979014       -4.8338648348       -4.0838895072
 H         3.7231324646       -6.2187813596       -4.4514406696
 H         2.4863022206       -6.3431593472       -3.1466161954
 H         0.9434090240      -12.4273942876       -4.0231495741
 H        -0.7846043612      -12.6576183946       -4.1171513901
 H         0.1455077085      -13.5089954477       -2.8871274515
 H        -1.2205104562      -10.9262321315       -0.6283864167
 H        -0.7303547608      -12.6672052749       -0.6524631584
 H        -2.0276092419      -12.0998729353       -1.5723695771
 H         3.5607980726       -7.2916687699        3.0376731522
 H         2.5732259432       -8.8499055256        2.6189956750
 H         2.0713770742       -7.4155832099        1.9136103894
 H         4.7811905384       -5.8917334391        1.4502380139
 H         3.0710513722       -5.9143773837        0.7654178413
 H         4.6548489047       -6.2444914615       -0.2148632536
 H         9.4162323402       -9.0477808005       -3.7041461894
 H         9.4464208473       -9.2267428847       -1.9112482984
 H         9.1384910382       -7.6096363095       -2.6220505673
 H         7.2266693751       -6.8223704478       -3.2717592368
 H         5.7617501528       -7.8796857491       -3.7199608198
 H         7.3057653449       -7.9252652325       -4.5905634320
 Na        3.6907989320       -9.5003526680       -2.8170604010
 Na       -8.7734808257        3.0882848696      -15.1291440837
