232

 C         7.7671318407      -11.8887100339       -2.7904812963
 C         7.0134505158      -10.5385360160       -3.0459177898
 O         5.9388749001      -10.5438722234       -3.6095273109
 C         7.5908548303       -9.1339730313       -2.6611068350
 C         6.8737877685       -8.8184976906       -1.3320611156
 O         5.6746101529       -8.8892289425       -1.3242745579
 C         7.6469189048       -8.4878331892       -0.0966259197
 C         6.7751742734       -7.7669249174        1.0146589105
 C         5.5229467786       -8.5499664617        1.3378418791
 O         5.6163435655       -9.5740820493        1.9996163823
 C         4.0561782515       -7.8605489538        1.0671412996
 C         3.3929259469       -8.5371396421       -0.2801585865
 O         3.2715098415       -7.8084271906       -1.2583755812
 C         2.7808957104       -9.8818022692       -0.1537214351
 C         1.4155287030      -10.0003047131       -0.7696586761
 C         1.4239260134      -10.9020104939       -2.1250378383
 O         2.3951672831      -11.3033895355       -2.6798585997
 C        -0.0086059310      -11.3122471139       -2.6473650615
 C        -0.4399154867       -9.9347733720       -3.4095454161
 O        -0.9463132175       -9.0318804721       -2.6927824379
 C        -0.2247112817       -9.7250598775       -4.8853647803
 C         0.1249175675       -8.2810774967       -5.1705520504
 C         1.5559700014       -7.7905512335       -4.8168203121
 O         2.4803440062       -8.6422065525       -4.6253523660
 C         1.9258446475       -6.3476701929       -4.9850430002
 C         2.3193722447       -6.0347128533       -6.6052534650
 O         2.2766536282       -6.9425173758       -7.3823510859
 C         2.8337648661       -4.6090708583       -6.9537226718
 C         2.9504527480       -4.4213156236       -8.4548997610
 C         1.5862090867       -3.7834299798       -9.0493082785
 O         0.7073899904       -3.5696521731       -8.2262246019
 C         1.4542060316       -3.4476164892      -10.5769410024
 C         1.2762125930       -1.8152412097      -10.6734741571
 O         1.9922344234       -1.1017392711      -11.3495356781
 C         0.3001991250       -1.1213823256       -9.7572322357
 C        -0.1500862205        0.2734739503      -10.3414362250
 C        -1.0064283638        1.1875182010       -9.3941477711
 O        -2.0407657997        0.8085585687       -8.8931115696
 C        -0.5206293690        2.7493115739       -9.2552117984
 C        -1.3621090553        3.7463781492      -10.0047734696
 O        -0.8122722102        4.5794448865      -10.7422736750
 C        -2.9749569410        3.7689756612       -9.6717006540
 C        -3.5284537432        5.2160537213       -9.7342962026
 C        -5.0392612921        5.3603946986       -9.9497150845
 O        -5.8591902865        4.5122289220      -10.0313379199
 C        -5.5197356589        6.8393412975      -10.0380111644
 C        -6.6061564187        6.9791317252      -11.1817838276
 O        -6.5749115051        7.9377304933      -11.9702364531
 C        -7.7466610964        6.0275374746      -11.2398519014
 C        -8.8064214870        6.5146511584      -12.2314497228
 C        -9.0502744725        5.8659455126      -13.5470676015
 O        -9.6216651117        4.7601283091      -13.5865833113
 C        -8.9421909785        6.6937930452      -14.9812787287
 C        -7.8902281846        5.9322140459      -15.8810887804
 O        -8.1465857436        4.9934303722      -16.6251599402
 C        -6.3433433948        6.3122274169      -16.0252689849
 C        -5.5610351966        4.9945887437      -16.0275747564
 C        -5.6050506849        4.1976921349      -14.7125264842
 O        -6.1674017488        4.5831070273      -13.7413256684
 C        -4.8920364663        2.7422306946      -14.6433104424
 C        -5.8458967179        1.5281661766      -14.7441614867
 O        -6.9253031967        1.7326738444      -15.3112553906
 C        -5.4121056489        0.2398914697      -14.0204247826
 C        -6.1064548645        0.1684589260      -12.6930233536
 C        -7.1641460173       -0.9801614750      -12.4528678580
 O        -6.8317440481       -2.1018223198      -12.1803227093
 C        -8.8308386313       -0.5962090545      -12.1962873562
 C        -9.1875337748        0.2050203142      -13.5094808462
 O        -9.0103591828        1.4370684795      -13.4605172473
 C        -9.7481988470       -0.5534047039      -14.7195003136
 C       -10.0104141893        0.2696068940      -15.9684408268
 C       -11.1721433881        1.2956841274      -15.7085271211
 O       -10.9405750618        2.5010363096      -15.7051480930
 C       -12.6261712195        0.9541059738      -15.9761714337
 C       -12.6513180454        0.9114797037      -17.6636236986
 O       -11.8979711683        0.0604448791      -18.0686065603
 C       -13.3554418829        1.9391217656      -18.6756711796
 C       -13.1028523130        1.6201009173      -20.1458487909
 C       -13.5441927951        2.9177915293      -20.9441593630
 O       -14.2912479580        3.7839196835      -20.5328175757
 C       -13.0025809858        3.0311138625      -22.4223807789
 C       -11.4491604838        3.2751238167      -22.2542841649
 O       -10.6767047001        2.4457447934      -22.6260410364
 C       -10.8508512453        4.5340392617      -21.6168071279
 C       -13.3526330489        1.8488221805      -23.3309329771
 C       -13.6511759436        4.3049827143      -23.0904632641
 C       -12.9459377453       -0.4663173829      -15.3544924654
 C       -13.7265753328        1.9718543152      -15.4160741832
 C        -9.7062108563       -1.9273198345      -12.0266893254
 C        -8.6586686986        0.3916510420      -10.8830080095
 C        -3.8675893823        2.5889222792      -15.7788590317
 C        -3.9751705511        2.7897969663      -13.3294694830
 C       -10.4405943193        6.6824809286      -15.4953532855
 C        -8.5459789212        8.1605545560      -14.8105975490
 C        -5.9435829287        7.2889401754       -8.5832099379
 C        -4.5135774823        7.9458316769      -10.3543400607
 C        -0.6881069917        3.0892153342       -7.6950065041
 C         0.9897121174        3.0082889067       -9.5682622514
 C         2.7080244273       -3.7492107354      -11.4374976253
 C         0.1415575931       -3.8652990319      -11.1695004601
 C         0.8257089148       -5.3898766336       -4.3813566980
 C         3.2520708405       -5.9391949041       -4.2206077195
 C         0.2135037974      -12.4992704253       -3.6715547635
 C        -1.0738371831      -11.6692964484       -1.5359924323
 C         3.2942415313       -8.1184623288        2.3626072350
 C         4.0920729147       -6.2657554388        0.8055934509
 C         9.1545191873       -9.1662001461       -2.5387433599
 C         7.2782804918       -8.0673952687       -3.7454924705
 H         6.9446410572      -12.6188986581       -2.8857922600
 H         8.1584250004      -12.0147387801       -1.8372639287
 H         8.4266852627      -12.0399054582       -3.5830396355
 H         8.5016415862       -7.8318672178       -0.3314527238
 H         8.0552542026       -9.4252699135        0.3376509501
 H         6.5608443144       -6.7795790809        0.6520402799
 H         7.4528554428       -7.6858874600        1.9177283884
 H         2.7654772069      -10.2071171533        0.8892341333
 H         3.4099284581      -10.6119316950       -0.6176962762
 H         1.1727475347       -8.9926387132       -1.0969684360
 H         0.7901874256      -10.5004702069       -0.0976909535
 H        -1.2753898588       -9.7923299265       -5.3286835270
 H         0.4354912034      -10.4846431337       -5.4498577739
 H        -0.5951572907       -7.5135470631       -4.7744883313
 H         0.0784083443       -8.2154035556       -6.2586144762
 H         3.8342004852       -4.4363597106       -6.4430637078
 H         2.0694966512       -4.1525498976       -6.4260452551
 H         3.1650787746       -5.3526747605       -9.0693377948
 H         3.8209943773       -3.8690560971       -8.7260560953
 H         0.7553968288       -0.9796076338       -8.8130559097
 H        -0.4815883825       -1.6772936795       -9.4383675234
 H        -0.7598477006        0.0696626056      -11.2622390792
 H         0.8408083048        0.7011597595      -10.7025244909
 H        -3.1049689683        3.2088754494       -8.6714314917
 H        -3.4949996995        3.2279224231      -10.4248181345
 H        -2.9807214778        5.7364007859      -10.5336630797
 H        -3.3287071776        5.8375066001       -8.8004707154
 H        -8.2326907005        6.1004338396      -10.3231702210
 H        -7.4220079137        5.0432456425      -11.4907158750
 H        -8.6438942172        7.5347245743      -12.4472304293
 H        -9.7565740851        6.4905695197      -11.6794797150
 H        -5.9729599501        6.9943999195      -15.2552825912
 H        -6.2891838184        6.9113957951      -16.8584854435
 H        -4.4703584905        5.1094084676      -16.3914721105
 H        -5.9018717344        4.3699484279      -16.8564341159
 H        -4.3272467075        0.0249748505      -13.9392765763
 H        -5.7601465698       -0.6173691521      -14.5373253483
 H        -6.5522430613        1.1618840724      -12.5690380434
 H        -5.4423830106        0.0810179493      -11.9062333328
 H       -10.6714831660       -0.9710903192      -14.3228288824
 H        -9.0813630827       -1.4048189821      -14.8440350297
 H       -10.2271651294       -0.2417359198      -16.9551142127
 H        -9.0857124237        0.8699383489      -16.0567900808
 H       -12.9616045201        2.8740255319      -18.4052982247
 H       -14.4915859148        1.9044797393      -18.5093103589
 H       -13.8285185783        0.8364254478      -20.5650304470
 H       -11.9994287543        1.4497819183      -20.3577254234
 H       -11.6358190882        5.2465359313      -21.3546233429
 H       -10.1442542983        4.9111686420      -22.3259008121
 H       -10.4435586579        4.2245045411      -20.7061752441
 H       -14.3732478975        1.5991642380      -23.2980096268
 H       -12.9024314144        0.9720432109      -23.0742927829
 H       -13.1913337114        2.1057026129      -24.3714668474
 H       -13.8913658323        4.9982610117      -22.3387282428
 H       -14.5389301582        3.9760701242      -23.5135087447
 H       -13.0964178323        4.7891575597      -23.9325912287
 H       -14.0148258760       -0.6623931832      -15.5517171656
 H       -12.8514459637       -0.4318145292      -14.3049383026
 H       -12.1910994744       -1.1263725491      -15.8568713858
 H       -13.4181112179        3.0356712037      -15.1705706426
 H       -14.3018593020        1.6335422268      -14.5669059256
 H       -14.4502228217        2.1778439791      -16.1796918900
 H        -9.3723460848       -2.5308891160      -12.8104699937
 H       -10.7516954162       -1.5910462166      -12.1082950570
 H        -9.4926810028       -2.3404539950      -11.0492543976
 H        -9.0873380913       -0.0945933028      -10.0378865513
 H        -9.1798891227        1.3918451168      -10.8782057947
 H        -7.5840762141        0.4306015461      -10.6453075872
 H        -3.5101937417        1.6056620936      -15.6756650292
 H        -2.9285666527        3.2729445742      -15.8074032383
 H        -4.2854439146        2.5648687173      -16.7417490630
 H        -3.1710377009        2.0784847923      -13.4137600652
 H        -4.6031819001        2.4911353720      -12.4068273069
 H        -3.4756285712        3.7493933001      -13.1992865364
 H       -11.2292268785        7.0059916701      -14.7166077938
 H       -10.7597336814        5.6976108694      -15.7581075548
 H       -10.5134466543        7.2995921828      -16.4328858532
 H        -7.7093027417        8.2913690255      -14.1386354692
 H        -9.3834076448        8.6725299776      -14.3086221319
 H        -8.4268832424        8.6508379886      -15.7976456944
 H        -6.8401846940        6.8312397576       -8.2337328226
 H        -6.1213292837        8.3379093588       -8.6754679282
 H        -5.1405289197        7.1964273026       -7.8105410120
 H        -3.8653088973        7.8181456001      -11.2346104623
 H        -3.7346362185        8.2275330944       -9.5889173402
 H        -5.0114283548        8.8935608825      -10.4113632901
 H        -1.6479223331        3.4333668878       -7.3891486153
 H        -0.1645223361        4.0515785836       -7.4832649094
 H        -0.1939166428        2.3737849684       -6.9413277557
 H         1.2070678348        4.1209311172       -9.4622395572
 H         1.2416656182        2.6880448192      -10.6825095854
 H         1.6367651776        2.4696145489       -8.8281907950
 H         3.0094149553       -4.8266373404      -11.5404920282
 H         3.6154650678       -3.2110786584      -11.0646994220
 H         2.4747732025       -3.4714841966      -12.4140765367
 H         0.2333815801       -4.8808935191      -11.4757503099
 H        -0.1661983816       -3.2472539175      -11.9675953935
 H        -0.6856942196       -3.8122494042      -10.4400965744
 H         0.8919239071       -5.5331346452       -3.3343548392
 H        -0.1814981629       -5.5091762912       -4.8271554729
 H         1.1828823018       -4.4251332989       -4.5485887897
 H         3.5784867729       -4.9215376658       -4.3889004776
 H         4.0249910730       -6.6414947989       -4.5395602313
 H         2.9236105102       -6.1715475611       -3.1893378635
 H         1.0312087820      -12.1733096433       -4.3879607787
 H        -0.6042735715      -12.5656074392       -4.4170709512
 H         0.4233475059      -13.3913195545       -3.1955400201
 H        -1.5062941447      -10.7602476945       -0.9922737665
 H        -0.6974894024      -12.4018782094       -0.8413927636
 H        -1.9212001320      -12.1811336864       -1.9174620208
 H         3.7087984839       -7.4008622558        3.0247403267
 H         3.4318344933       -9.1842570737        2.6585396868
 H         2.2504896101       -8.0484322825        2.2391018925
 H         4.4212877666       -5.6735827080        1.6722267307
 H         3.1267943239       -5.9983470295        0.3451108330
 H         4.7749787668       -6.1440161448       -0.0495385688
 H         9.5866811307       -9.6151967130       -3.4214085570
 H         9.2627657045       -9.8767463775       -1.7285560658
 H         9.5310945449       -8.2509772734       -2.1978235758
 H         7.3855094016       -7.1125563194       -3.3291880625
 H         6.2609456809       -8.2307321638       -4.1722606485
 H         8.1032126707       -8.1064224963       -4.4526736272
 Na        4.0754036496       -9.4365366069       -3.1426009384
 Na       -8.8542617660        3.2170201135      -15.1457995329
