232

 C         7.7143657526      -12.0158606422       -2.6034008486
 C         7.0664459868      -10.7701223718       -3.0658492932
 O         5.9649602638      -10.7028346768       -3.5644321513
 C         7.7629777051       -9.4485796090       -2.6242924320
 C         7.0410736864       -8.9773656654       -1.3142187454
 O         5.8314577216       -8.8281874341       -1.3890949742
 C         7.7090856329       -8.5730451351        0.0089095892
 C         6.7723472042       -7.6222162896        0.8324824515
 C         5.4361011446       -8.3776092592        1.2262284060
 O         5.6178486568       -9.5290664109        1.5975899809
 C         4.0085163425       -7.7628314143        1.1037821635
 C         3.4333050546       -8.4381926997       -0.1271061297
 O         3.4262000410       -7.8177001014       -1.1852067150
 C         2.9585992643       -9.9475437323       -0.0749072681
 C         1.4944030374      -10.1199857757       -0.7107936219
 C         1.5332032146      -10.7362961441       -2.1765292614
 O         2.5812479376      -10.9811506580       -2.8031770785
 C         0.0745104185      -11.2152658799       -2.9116011536
 C        -0.3461250291       -9.8113371312       -3.4327776677
 O        -0.5872848144       -8.9013139517       -2.7140336052
 C        -0.0885112175       -9.5005730059       -5.0645194566
 C         0.1748971341       -8.0231962061       -5.3032360368
 C         1.5716913424       -7.8671363126       -4.8024600924
 O         2.2082421657       -8.7846338863       -4.4041311445
 C         2.2122826459       -6.4135796596       -4.9287183482
 C         2.4570550107       -6.1196396962       -6.3944435055
 O         2.1723853107       -7.0555867519       -7.1421075473
 C         2.9527208709       -4.6421238168       -7.0299370677
 C         2.7637688743       -4.6319332992       -8.5458453794
 C         1.5516027834       -3.7163238696       -8.9556302966
 O         0.7124183543       -3.2681690283       -8.2138097914
 C         1.4238773457       -3.4134970563      -10.4691343315
 C         1.1779295363       -1.8435503487      -10.7077601192
 O         1.7842199045       -1.2818743448      -11.5730269764
 C         0.1589767988       -1.0579293667       -9.9026835404
 C        -0.0572337890        0.4102526659      -10.4163009245
 C        -0.9208634513        1.2404484076       -9.4448682840
 O        -1.9201504399        0.7775920723       -8.9385041945
 C        -0.6229582409        2.7921847977       -9.1347007219
 C        -1.6288287208        3.6526865167      -10.0350414236
 O        -1.1491944722        4.2821215785      -10.9343785119
 C        -3.1038641481        3.6897304718       -9.7688597049
 C        -3.4313524119        5.1668184512       -9.7082613760
 C        -4.9185150464        5.4908023426      -10.1188437175
 O        -5.6516348850        4.5000956436      -10.2198427608
 C        -5.4793083312        6.8827498671      -10.1315543400
 C        -6.7523494627        7.1904319580      -11.1643385755
 O        -6.7541394258        8.2194980882      -11.8348529353
 C        -7.9169315884        6.1600604249      -11.3399961973
 C        -9.1568741573        6.6845822962      -12.2235847463
 C        -9.1991346892        5.8728461918      -13.5836733511
 O        -9.5327631132        4.7044890366      -13.6181572170
 C        -9.0471123350        6.5943170162      -14.9521977141
 C        -8.1444471292        5.7336449049      -15.9525613261
 O        -8.6711375319        4.9226305838      -16.7032430920
 C        -6.7100388759        6.0386550877      -15.9354418083
 C        -5.8043031710        4.8733653184      -15.9811260538
 C        -5.7029527875        4.1786671847      -14.6064954434
 O        -6.2076351549        4.6366276463      -13.6030878167
 C        -4.8538547133        2.8280140221      -14.5839653785
 C        -5.8776124157        1.6938887394      -14.5870577774
 O        -6.8671911972        1.7534261470      -15.2723558433
 C        -5.6641995797        0.2862861063      -13.9330715490
 C        -6.2074908268        0.2159544745      -12.3705006199
 C        -7.1775524904       -1.0165026226      -12.4565018408
 O        -6.7868516868       -2.1516349307      -12.3556508817
 C        -8.7401934989       -0.5617208652      -12.2776498340
 C        -9.1466448091        0.3291743301      -13.4825215661
 O        -9.0405723847        1.5237028308      -13.4676587669
 C        -9.7433548805       -0.5492649520      -14.7397167978
 C       -10.1121460255        0.4083005502      -15.8881282230
 C       -11.2800765699        1.4199469975      -15.6536191994
 O       -11.0329342274        2.5816071272      -15.3837698161
 C       -12.6667887221        1.0793708951      -16.1184589033
 C       -12.7087254247        0.8855206906      -17.6906665628
 O       -12.0892259660       -0.0082086034      -18.2383314521
 C       -13.5181079101        1.8706831608      -18.5088626298
 C       -12.8700386628        1.8057513010      -19.8814913439
 C       -13.3544322766        3.0378714986      -20.7600936030
 O       -14.1626754481        3.7768940459      -20.2230451943
 C       -12.8144665755        3.0822036690      -22.2224241078
 C       -11.3320907389        3.2765381930      -22.2665976076
 O       -10.5979940277        2.4792528477      -22.8450729908
 C       -10.6891933918        4.4309075981      -21.4796641775
 C       -13.1025383408        1.7538907660      -23.0726175476
 C       -13.5671744825        4.3583305692      -22.8472717385
 C       -13.2033967857       -0.2849102396      -15.6636240406
 C       -13.5618116684        2.1743182059      -15.5434583733
 C        -9.5231266125       -1.8988230871      -11.9978397911
 C        -8.9173108572        0.3769552384      -10.9886036856
 C        -4.0258130518        2.6656543445      -15.8451447182
 C        -3.9163981041        2.8222727335      -13.2798555718
 C       -10.4124875491        6.6445762219      -15.6543385976
 C        -8.2984281444        8.0778299425      -14.8673115921
 C        -6.1650003478        7.1505776513       -8.7679449829
 C        -4.3820113374        7.8193649640      -10.5071288492
 C        -0.7879952066        3.0275583158       -7.6453203429
 C         0.8615055401        3.0062510993       -9.6137025857
 C         2.6494554902       -3.8332661384      -11.3083012201
 C         0.2045554434       -4.1444073649      -10.9584451537
 C         1.1783843542       -5.3708282970       -4.3966635511
 C         3.5167026453       -6.3595277570       -4.1182644372
 C         0.1238875525      -12.2887037567       -3.9550231162
 C        -0.9284082998      -11.5786441676       -1.8185573455
 C         3.1453829685       -8.1208587661        2.4186551081
 C         4.1684875732       -6.2363721402        0.9661908428
 C         9.2806573675       -9.5839769438       -2.3587772774
 C         7.5411799387       -8.3502554292       -3.7471445520
 H         7.4248521996      -12.9391941866       -3.1045957854
 H         7.3016405636      -12.0524223750       -1.5431507485
 H         8.8493585271      -11.8904162820       -2.6888305498
 H         8.7005552828       -8.0429369369       -0.0652269016
 H         7.8846157276       -9.5775194279        0.5002468852
 H         6.8267692609       -6.6318717823        0.3068650528
 H         7.2309298466       -7.4681037381        1.7960823933
 H         2.9051731626      -10.3885530410        0.9505873440
 H         3.7513025117      -10.6224248945       -0.5925665318
 H         0.9852457997       -9.1398174421       -0.8182125395
 H         0.9865343334      -10.9643685756       -0.1486977512
 H        -0.9332857562       -9.8217143952       -5.6101118608
 H         0.7807760642      -10.0578695494       -5.3466732815
 H        -0.4974032859       -7.4101783379       -4.7069198891
 H         0.1838343637       -7.6182675880       -6.3505288368
 H         3.9653464611       -4.6158114070       -6.7445550503
 H         2.3757642969       -3.8522262662       -6.4475320488
 H         2.5946239608       -5.5859813197       -8.9965517734
 H         3.6613662942       -4.3384072908       -9.1465965481
 H         0.3491762025       -1.1084507589       -8.7953169911
 H        -0.8668903612       -1.5985396789       -9.8472883811
 H        -0.6230554725        0.2243181285      -11.3018742917
 H         0.8593286940        0.7651173624      -10.7459932752
 H        -3.3685602400        3.1934942833       -8.9141355314
 H        -3.7091709960        3.2396006498      -10.6324861571
 H        -2.7841628642        5.7701680657      -10.3861963693
 H        -3.1832248618        5.5332824261       -8.7335949556
 H        -8.2025179449        5.8645281545      -10.2863820932
 H        -7.5245743331        5.3251134690      -11.9371687605
 H        -9.0435158518        7.7637518423      -12.3968567689
 H       -10.1391002520        6.4910077057      -11.7686383611
 H        -6.4191315919        6.7078245088      -15.1481325710
 H        -6.6845706500        6.7746672540      -16.8389446706
 H        -4.8638816182        5.1976768682      -16.3326368196
 H        -6.0665480148        4.1839916039      -16.7663746299
 H        -4.6240585195        0.0139228396      -13.9281840151
 H        -6.1718569556       -0.5628627997      -14.5072426024
 H        -6.7390803556        1.1838898587      -12.2180288260
 H        -5.3498602686        0.0387949094      -11.6023125442
 H       -10.6845636169       -0.9753952680      -14.3249592346
 H        -9.1507734702       -1.4106272058      -15.1117540230
 H       -10.5061406451       -0.2329088999      -16.6738934031
 H        -9.1394462977        0.8326555115      -16.1742167598
 H       -13.3002387516        2.9094744785      -18.0516055999
 H       -14.5630099797        1.7142096274      -18.5767486131
 H       -13.1670908790        0.9083069832      -20.3515893597
 H       -11.8194270518        1.9200481369      -19.8754298457
 H       -11.0104122796        5.4207753381      -21.9188673734
 H        -9.6233809617        4.3300290056      -21.5629909472
 H       -11.0807921612        4.3642762092      -20.4358754023
 H       -14.1327763890        1.5261218684      -23.4136349372
 H       -12.7166169561        0.8249150512      -22.5053519893
 H       -12.5823809503        1.8044300668      -24.0061789100
 H       -13.9585839556        5.0586675228      -22.0915100202
 H       -14.3319651091        4.1300914284      -23.6264300981
 H       -12.8009201825        4.8713662029      -23.3885370379
 H       -14.2311842819       -0.2793482986      -15.9661959141
 H       -13.1038108330       -0.4581891114      -14.5727020308
 H       -12.6730506809       -0.9538024687      -16.2641878777
 H       -13.2342603217        3.1434001168      -15.8599668934
 H       -13.6623687458        2.1485851616      -14.4621490387
 H       -14.6208694691        2.0998458036      -15.8531956934
 H        -9.0708740974       -2.6664234474      -12.6683512138
 H       -10.5577830701       -1.7044046513      -12.1196761462
 H        -9.1748530728       -2.1818784333      -10.9999718353
 H        -9.7288509788       -0.0542257480      -10.2929318026
 H        -9.2843588341        1.2927463866      -11.3312135828
 H        -8.0524344111        0.4849823346      -10.3760571405
 H        -3.4389373367        1.7176555966      -15.8882591401
 H        -3.4107238905        3.4525700362      -16.0485737587
 H        -4.6852727652        2.5796484519      -16.7140839184
 H        -3.5146775925        1.7682572484      -13.2068212060
 H        -4.4858147592        3.0293565729      -12.4323708369
 H        -3.0091315234        3.4453956128      -13.3246047593
 H       -11.1527271505        6.9628816090      -15.0077866168
 H       -10.7861474399        5.6197286250      -15.9051837880
 H       -10.3416222824        7.1522293171      -16.5894472821
 H        -7.4528526594        8.1268264247      -14.1587174650
 H        -8.9512564721        8.8870240281      -14.5138781936
 H        -8.0846814905        8.2989911957      -15.9006622615
 H        -6.6321274166        6.2361016187       -8.2969352375
 H        -6.9092419344        7.9737969288       -8.7930507591
 H        -5.4188280617        7.5973225752       -8.1597901919
 H        -4.0543631295        7.6847712513      -11.5398704374
 H        -3.4964088180        7.8010987065       -9.9514386364
 H        -4.6551634088        8.8966992395      -10.4741585248
 H        -1.7855225240        2.5711125114       -7.3862458755
 H        -0.9057255109        4.0246125094       -7.2341838050
 H        -0.0934815740        2.5191232487       -7.0760098324
 H         1.0761965292        4.0476571014       -9.5117877582
 H         0.9185855017        2.7856099980      -10.6189036083
 H         1.6194180529        2.4697859442       -9.0115641913
 H         2.6405676054       -4.8949658625      -11.4974442124
 H         3.5904984990       -3.6853140335      -10.7864706089
 H         2.5498750060       -3.4152878186      -12.3734648205
 H         0.2974502064       -5.2287827582      -10.8691754151
 H         0.0832963927       -3.8393353904      -12.0554770012
 H        -0.6325680669       -3.8771945209      -10.3659181201
 H         1.0221738247       -5.7092451928       -3.3644480680
 H         0.2883393173       -5.4241359391       -5.0133439474
 H         1.5479615498       -4.3173729608       -4.3963150023
 H         3.5845852172       -5.2791430986       -3.9707853326
 H         4.3851895225       -6.7555417408       -4.6445645487
 H         3.3582784212       -6.8382333205       -3.1993505728
 H         0.8045144377      -12.1299103554       -4.7398413304
 H        -0.8057754729      -12.5023630257       -4.4225838646
 H         0.5182651873      -13.1734555813       -3.3491643968
 H        -1.1465096965      -10.8096452249       -1.1231188664
 H        -0.5551012988      -12.4739549844       -1.2866966546
 H        -1.9085203112      -11.9749464786       -2.2374725658
 H         3.2201716776       -7.2537742654        3.1720087522
 H         3.4299527322       -9.0908899584        2.8140947578
 H         2.0231916403       -8.1158750473        2.1392182665
 H         4.8011222717       -5.9934090567        1.8390834717
 H         3.1837245961       -5.7357626029        1.1182198381
 H         4.4411472775       -5.8552795954       -0.0196096737
 H         9.6429096722       -9.9806529554       -3.3085101336
 H         9.5823264037      -10.1756171148       -1.5084514369
 H         9.6136081790       -8.5413893214       -2.2172335816
 H         8.1083589546       -7.4087434553       -3.6192036370
 H         6.5133306901       -8.1573396472       -3.6942148505
 H         7.8427430284       -8.7952424267       -4.6781902537
 Na        4.0968715762       -9.2479632506       -3.2628633681
 Na       -8.8261956534        3.2148051277      -15.1098435658
