232

 C         7.6176763668      -12.4133613615       -2.5304455971
 C         7.1960163942      -10.9815170782       -2.9456322372
 O         6.1039538374      -10.8671834997       -3.4775562817
 C         7.9136707730       -9.6471355613       -2.5481399113
 C         7.1169129364       -8.9669799853       -1.3540258275
 O         5.9249170818       -8.7643669530       -1.4893539675
 C         7.6911514310       -8.5249846740       -0.0568275845
 C         6.6402371470       -7.6774567593        0.6683768045
 C         5.4439113779       -8.4821967699        1.0598742180
 O         5.4684144162       -9.6407694267        1.3553405254
 C         3.9399506610       -7.7667316769        1.0649268913
 C         3.3527571951       -8.4510764434       -0.2219126679
 O         3.2871445904       -7.7511325427       -1.2299684407
 C         2.9798450463       -9.9325119533       -0.1663060151
 C         1.6236343501      -10.2494613114       -0.7473542886
 C         1.7335874004      -10.8052844427       -2.2387934877
 O         2.7139138847      -10.8401005885       -2.8824492611
 C         0.3535667749      -11.0209706110       -2.9016576612
 C        -0.1622417162       -9.6066698028       -3.5367887441
 O        -0.3731044132       -8.6784766657       -2.7377564223
 C        -0.4724300808       -9.3614058878       -4.9920968418
 C         0.2056426276       -8.0099465865       -5.3445206685
 C         1.6539410247       -7.7399378536       -4.7411260048
 O         2.2890471361       -8.6886063023       -4.2303235099
 C         2.2492436974       -6.3403832679       -4.9427817123
 C         2.4019407069       -6.1876596253       -6.5195958816
 O         2.2361812975       -7.1204346363       -7.2205957702
 C         2.8755596915       -4.7679390873       -7.0000118627
 C         2.6460719243       -4.6913921664       -8.4314441005
 C         1.5855468653       -3.6563867271       -8.8342430180
 O         0.9431954633       -3.0975164588       -7.9900820343
 C         1.3396329295       -3.3334260939      -10.3800508146
 C         1.0576375522       -1.9003591054      -10.8346482040
 O         1.6342221573       -1.3651723645      -11.7857882801
 C         0.0524410360       -1.1303953309      -10.0669513239
 C        -0.0180557968        0.3868018802      -10.3972867208
 C        -0.9302846138        1.1492194351       -9.5015835088
 O        -1.9301386990        0.6136542120       -9.0441689374
 C        -0.6421654675        2.7307392577       -9.2050042878
 C        -1.6290935416        3.5631070132      -10.1252544506
 O        -1.3288630304        3.8299015330      -11.2869077505
 C        -3.1283510429        3.7837339913       -9.5658217381
 C        -3.6425065256        5.2221766134       -9.8723002618
 C        -5.0397818865        5.3237936134      -10.3234361951
 O        -5.7971116982        4.4313186397      -10.6429390752
 C        -5.5544063785        6.8812523497      -10.3114672701
 C        -6.8327250985        7.2369575924      -11.3003536280
 O        -6.9179266374        8.2756558983      -11.8570790927
 C        -7.9538241859        6.2088673183      -11.3842368141
 C        -9.0857993503        6.7951448835      -12.2219894901
 C        -9.1749765208        5.9564385858      -13.4834231058
 O        -9.1430284422        4.7454977471      -13.4444018558
 C        -9.1818286904        6.7408812885      -14.9300520115
 C        -8.3411950457        5.7779541352      -15.8563847201
 O        -8.7853245189        4.7768038059      -16.3900595592
 C        -6.7733005652        6.0415382489      -16.1015499310
 C        -5.9918634302        4.6648431517      -16.0679204319
 C        -5.6749253777        4.0793473329      -14.6579873407
 O        -6.2387591274        4.5272622219      -13.6644154262
 C        -4.7784657407        2.8648831735      -14.5592933992
 C        -5.9290597588        1.6637728260      -14.6147790205
 O        -6.9804719875        1.7718536792      -15.2536863594
 C        -5.6625079924        0.3836023881      -13.8347237264
 C        -6.1814480014        0.3594214421      -12.4306077089
 C        -7.2587776571       -0.7917742542      -12.3709624523
 O        -6.9007468005       -1.9246775420      -12.6485735467
 C        -8.8106474389       -0.4941487451      -12.0910428212
 C        -9.2142755164        0.2110017197      -13.4415279182
 O        -8.8105591668        1.3906854739      -13.3783085903
 C        -9.8279559809       -0.5732683764      -14.6677394398
 C       -10.1940074790        0.3736116602      -15.9686460768
 C       -11.3238755209        1.3785117414      -15.6105934214
 O       -11.0649490928        2.5128791007      -15.2428388938
 C       -12.8311335555        1.0486330356      -16.0563522058
 C       -12.8366824983        0.7369696160      -17.6254631501
 O       -12.1273761708       -0.1611686715      -17.9743386409
 C       -13.4345713454        1.7916604960      -18.5647763277
 C       -12.6903574749        1.9863262392      -19.8800984288
 C       -13.2119462542        3.1953251150      -20.7578372844
 O       -13.9493799714        3.9860726522      -20.2629226250
 C       -12.7535025453        3.1788172738      -22.2502079528
 C       -11.1904954613        3.3284252130      -22.2161280539
 O       -10.4536426507        2.6465181353      -22.8736451170
 C       -10.6151270126        4.4803988175      -21.2790528774
 C       -13.3036141585        1.8626923628      -22.8379589641
 C       -13.2908509357        4.3768871156      -23.0650891320
 C       -13.2755919805       -0.2428978662      -15.4195960956
 C       -13.7735477536        2.1919120912      -15.6870395501
 C        -9.5124995913       -1.9174261498      -12.0779300577
 C        -9.1681932064        0.3052779298      -10.8118884026
 C        -3.8236423980        2.4220066300      -15.7573540386
 C        -4.0018685758        2.8606926876      -13.2450673134
 C       -10.6154542693        6.9735929659      -15.6296003622
 C        -8.6780612219        8.1983414993      -14.7212210961
 C        -6.2314250571        7.1480474627       -8.9406930069
 C        -4.5189846300        7.9409937025      -10.5096625480
 C        -0.9288215148        2.9495793267       -7.7559288708
 C         0.7901961609        3.3497347670       -9.4649928972
 C         2.4991084562       -3.7989839188      -11.2439628265
 C         0.0717105503       -4.3387800843      -10.7943584301
 C         1.5785459386       -5.1897244447       -4.2839744818
 C         3.6843969352       -6.3412864769       -4.3154091730
 C         0.6158555793      -12.0958695722       -3.9195377227
 C        -0.8414670742      -11.3752357614       -1.9716607388
 C         3.2936553629       -8.2007093552        2.3579934558
 C         3.9628605219       -6.2496095373        0.9826140183
 C         9.4188824486       -9.9081950296       -2.1870386483
 C         7.8198183586       -8.6504800751       -3.7121353644
 H         7.2054925167      -13.1665079209       -3.2368205980
 H         7.1320619222      -12.5767706763       -1.5857553537
 H         8.6566288003      -12.5900463539       -2.6037038356
 H         8.6093273206       -8.0453332131       -0.1719461686
 H         7.8122402601       -9.3536653543        0.5582423247
 H         6.3047046845       -6.8463719563        0.0702696707
 H         7.0586923596       -7.2043935449        1.5855235311
 H         3.1284428353      -10.4297978214        0.7484683735
 H         3.6976275252      -10.3665826987       -0.7831018082
 H         1.0441764741       -9.3564073701       -1.0374002637
 H         1.1068122812      -11.0056680017       -0.2082730542
 H        -1.6006324875       -9.3497036459       -5.0830399140
 H        -0.0197763014      -10.1901863892       -5.5590357190
 H        -0.4241183191       -7.1526006501       -5.0874526531
 H         0.4356190495       -7.9670878730       -6.3932327758
 H         3.9403711566       -4.6953129640       -6.5794270824
 H         2.2827574984       -3.9977605251       -6.5399296085
 H         2.3882677530       -5.6407984699       -8.9288765659
 H         3.5193395967       -4.3781915580       -8.9935152655
 H         0.0684883992       -1.3203371364       -8.9999976931
 H        -0.8907181068       -1.5576354818      -10.2615801466
 H        -0.3718767374        0.2845183166      -11.4656189081
 H         1.0526573606        0.7501403578      -10.5348039427
 H        -3.2698887334        3.7310750370       -8.4000222345
 H        -3.7417182090        3.0353820423       -9.9700003366
 H        -3.1111928006        5.9388759616      -10.4469470007
 H        -3.6354966930        5.7571427126       -8.8928086294
 H        -8.1987376809        5.8224285399      -10.3978739659
 H        -7.4541565670        5.4878562746      -12.0783630427
 H        -8.8027730018        7.8726462275      -12.3887465895
 H       -10.0650074799        6.7531420088      -11.7046726505
 H        -6.3612636010        6.7096873274      -15.2903184391
 H        -6.6324296706        6.5972127929      -16.9841195524
 H        -4.9902122481        4.9111169867      -16.5666424955
 H        -6.3554658257        3.9260018849      -16.8338294703
 H        -4.5914227223        0.0302150629      -13.9706994884
 H        -6.2895763847       -0.3622112392      -14.2115506783
 H        -6.6287131508        1.2588761805      -12.0306221807
 H        -5.4191906127       -0.0096852950      -11.8328036848
 H       -10.6794256470       -1.1351467250      -14.2692318168
 H        -9.0876215809       -1.3313386294      -14.9177673998
 H       -10.4469063365       -0.3619372567      -16.7763949825
 H        -9.2460483477        0.9140282510      -16.1550511482
 H       -13.3784215786        2.7045893628      -18.0500526026
 H       -14.5379027466        1.5866229945      -18.6247543508
 H       -12.6811992912        1.1459830515      -20.5974934947
 H       -11.6251406476        2.2731031725      -19.7370814632
 H       -10.1064926540        5.1799510363      -21.8857622644
 H        -9.8618908673        4.0132614089      -20.5587870928
 H       -11.4486693815        4.9182028320      -20.7280502054
 H       -14.3772211544        1.7118165242      -22.7285322766
 H       -12.7915447582        1.0248992954      -22.4409752994
 H       -13.1832365224        1.7423395916      -23.9630368530
 H       -13.2688376984        5.2446517698      -22.3537371566
 H       -14.3244548729        4.2941783620      -23.4080912471
 H       -12.6549714345        4.6345656451      -23.9331024760
 H       -14.2565338237       -0.5481521136      -15.8444052640
 H       -13.2751621931        0.0242246174      -14.3720460457
 H       -12.5253496762       -1.0496605894      -15.6491600902
 H       -13.6480828603        3.0658612648      -16.3323099113
 H       -13.6182034061        2.4596621444      -14.6358324020
 H       -14.8304655392        1.9222676802      -15.6047025593
 H        -9.3743881759       -2.2948311739      -13.0667835426
 H       -10.5923790083       -1.7499950873      -11.8654543891
 H        -8.9244412393       -2.5991013714      -11.5084605078
 H       -10.1717902027        0.5167856146      -10.7112345921
 H        -8.5631814588        1.2899974125      -10.8538425666
 H        -8.8806685197       -0.3168003103       -9.9253639170
 H        -3.1677239386        1.6110467026      -15.4696860654
 H        -3.1796610921        3.2471162961      -16.2094833657
 H        -4.3894408035        2.0725275931      -16.6670067672
 H        -3.4890830269        2.0080652230      -13.0141345347
 H        -4.6452915779        3.2914028091      -12.4408473603
 H        -3.2519714033        3.6154158069      -13.3742269157
 H       -11.1932327507        7.7542033263      -15.1057201913
 H       -11.2748658838        6.1434572462      -15.5749510446
 H       -10.4483763307        7.0381571990      -16.7019367597
 H        -7.8343891339        8.2383611230      -14.0645214631
 H        -9.4755205877        8.6434256635      -14.1684456140
 H        -8.6021183266        8.7490846769      -15.6558247643
 H        -7.0076818473        6.4638959469       -8.8386072322
 H        -6.6605792697        8.1307114403       -8.8850544099
 H        -5.5025041894        7.1572164023       -8.0747497426
 H        -3.8513120644        7.8800833663      -11.3398035791
 H        -3.8717708572        7.9862411269       -9.5938967486
 H        -4.8706072131        8.9114096355      -10.6709739083
 H        -1.4901667281        2.2242568378       -7.2533597244
 H        -1.3822033585        3.9078348310       -7.5856198905
 H         0.0283961097        2.9278493374       -7.1394488206
 H         1.0453802193        4.1520088968       -8.7832930662
 H         0.9974372697        3.6157558945      -10.4902376225
 H         1.4581568654        2.5568242564       -9.2398184144
 H         2.9831199634       -4.7400241450      -10.9747787263
 H         3.2972170741       -3.1094370176      -11.1384287930
 H         2.0962400517       -3.9453223571      -12.2022877960
 H         0.1093434515       -5.2859656307      -10.1953926240
 H         0.0592282544       -4.5728142428      -11.8285781630
 H        -0.8952637689       -3.8624404446      -10.3827486080
 H         0.9263222512       -5.3460887248       -3.4159440690
 H         1.1059633389       -4.6090478698       -5.0677651826
 H         2.4510653016       -4.5903982872       -4.0601526147
 H         4.2098647000       -5.5080234245       -4.7635501792
 H         4.0678121260       -7.3379452447       -4.5393736532
 H         3.6280204383       -6.2148637979       -3.1887912413
 H         1.6209335808      -11.9590158537       -4.4015205894
 H        -0.1434237593      -12.0649530709       -4.7410161437
 H         0.6518654416      -13.0619628152       -3.5189777011
 H        -1.0264918722      -10.6474641823       -1.1494491602
 H        -0.6869796872      -12.3396888883       -1.4611328556
 H        -1.6895018877      -11.4611557752       -2.5799895348
 H         3.7912103964       -7.6314020915        3.1383075501
 H         3.5501423368       -9.2809305729        2.5285576112
 H         2.2739395498       -7.8768710468        2.4859078165
 H         4.8014480683       -5.8527173590        1.5568865820
 H         3.1228332322       -5.7064373525        1.4394399750
 H         3.8807710820       -5.9865535783       -0.0919015762
 H         9.8316404638      -10.3415277652       -3.0847060150
 H         9.5189619831      -10.5602675809       -1.2902332216
 H         9.8684158152       -8.9312198906       -2.0318225874
 H         8.6080879832       -7.9142817414       -3.4809207645
 H         6.8390195150       -8.0799435994       -3.7140231315
 H         8.0871400980       -9.1870170325       -4.6428832977
 Na        4.3315388407       -9.1883002919       -2.9697558939
 Na       -8.8357192770        3.0668407871      -15.0020503357
