232

 C         7.4345339347      -12.8605948027       -2.7497785934
 C         6.9963116964      -11.3913778139       -2.4820188620
 O         5.8910883280      -10.9827528964       -2.7954823051
 C         8.1240248278      -10.2660961974       -2.0945070686
 C         7.4918870380       -8.9977338490       -1.4425134028
 O         6.5978507732       -8.4286840773       -2.0837667166
 C         8.0229558770       -8.3925371032       -0.1469711930
 C         6.9249369624       -7.5588749441        0.4914191319
 C         5.7348594288       -8.4774683175        0.9795137980
 O         5.8133287679       -9.6367341684        1.2416128733
 C         4.0978276217       -7.8887785161        0.9976205371
 C         3.4424385866       -8.7468004154       -0.1852302597
 O         3.5263839657       -8.3798330143       -1.3221693089
 C         2.8080451535      -10.1212492031        0.1451224469
 C         1.5698671355      -10.4302256523       -0.5807888749
 C         1.8352612753      -10.8592517311       -2.0329449647
 O         2.9347306947      -11.0979277402       -2.4132330466
 C         0.5994783930      -10.8826870234       -3.0929162796
 C         0.1589434512       -9.4442825968       -3.3130178511
 O        -0.2556761072       -8.7753351788       -2.3525076484
 C         0.0600240181       -8.7802564780       -4.7738948705
 C         0.5131250705       -7.3292461192       -4.7692970993
 C         2.1388231831       -7.3900097658       -4.8026501820
 O         2.6875301902       -8.4994913585       -4.7024499525
 C         2.9521116354       -6.1443339353       -5.2050900799
 C         2.7131647683       -5.7774951397       -6.7639906850
 O         2.3072735390       -6.6181441630       -7.4457708677
 C         3.1669225791       -4.3884599824       -7.2719475965
 C         2.9892178527       -4.2241925273       -8.7932009819
 C         1.9207895733       -3.1503547627       -9.1681712797
 O         1.6758956292       -2.2586445721       -8.4220971853
 C         1.0598247130       -3.4522753861      -10.4773283211
 C         0.7165679235       -1.9829285620      -10.9766552434
 O         1.3869703847       -1.5343222251      -11.8824944986
 C        -0.5282040204       -1.2037932319      -10.3928391685
 C        -0.0252335864        0.2440765973       -9.9075428746
 C        -1.2695414005        1.0564607290       -9.4893415839
 O        -2.3483024068        0.5577440716       -9.2409659846
 C        -1.2280802930        2.6235173577       -9.3530876913
 C        -2.2186044264        3.1559346293      -10.4093073771
 O        -2.1005817268        2.9093125810      -11.5982583354
 C        -3.4081890933        4.0379352181       -9.9122240682
 C        -3.6527910135        5.3330072630      -10.6818121553
 C        -5.1197975067        5.6651036879      -10.6137243564
 O        -5.8994329286        4.7452962494      -10.7846686984
 C        -5.6795599853        7.0802617907      -10.3741635505
 C        -6.7369728322        7.2337680258      -11.4989463279
 O        -6.5010607243        7.6397522702      -12.5867613499
 C        -8.2397502062        6.9272086925      -10.9546193876
 C        -9.2972564902        6.8495557525      -12.0453095059
 C        -9.1197483877        5.9710775601      -13.3061676492
 O        -9.0762156405        4.8050757964      -13.0953616870
 C        -9.1506723745        6.5944909675      -14.7604442504
 C        -8.4284149826        5.6388231004      -15.7766753606
 O        -9.0046257030        4.6301538086      -16.1643748061
 C        -7.0629583787        6.0720694920      -16.3690523306
 C        -6.1639128532        4.7741080915      -16.3371577324
 C        -6.0267868004        4.2056813635      -14.9228785421
 O        -6.5896488892        4.7291711500      -13.9611248423
 C        -5.1631278953        2.9757353539      -14.6838028166
 C        -6.1636088929        1.8464852905      -14.5389539669
 O        -7.3398392216        1.8902875276      -14.8983682382
 C        -5.7415981776        0.4287708080      -13.9436965908
 C        -6.4599431887        0.3412873365      -12.6940859483
 C        -7.4679605210       -0.8654526801      -12.7244673469
 O        -7.1571848825       -1.9135308763      -13.2384151313
 C        -8.8157017688       -0.6660336066      -12.0443761899
 C        -9.6302033178        0.1642232809      -13.0757146009
 O        -9.5999481922        1.3958733109      -13.0096894749
 C       -10.3083044020       -0.6447591433      -14.2252821954
 C       -10.5378930117        0.0718861466      -15.5444245687
 C       -11.5618786618        1.1785384518      -15.4269081941
 O       -11.2347887946        2.3492164672      -15.4754394527
 C       -13.0663372250        0.8849141583      -15.8544129127
 C       -12.9101357749        0.8046820693      -17.4564557180
 O       -12.5484626846       -0.2368186476      -17.8789474382
 C       -13.0391114946        2.1006006206      -18.3095068256
 C       -12.9356728761        2.0327777812      -19.8000035717
 C       -12.9144218289        3.3937275596      -20.5313548225
 O       -13.0832608046        4.4735908407      -19.9797697555
 C       -12.3425466799        3.3822714546      -22.0426183768
 C       -10.7521901614        3.5048657516      -22.0887082038
 O       -10.0726879863        2.5407591151      -22.4744463396
 C       -10.0745598547        4.8100254194      -21.6347046964
 C       -12.7394441877        2.1924096695      -22.8812299139
 C       -13.0346900742        4.6824712165      -22.6709093002
 C       -13.6985553721       -0.4008361210      -15.3584819155
 C       -14.0310806711        2.1053178324      -15.5492813969
 C        -9.5004711761       -2.0840279811      -11.9061058224
 C        -8.8103334438        0.2577592180      -10.7028934818
 C        -4.1053330044        2.5105949477      -15.9128523494
 C        -4.3406066133        3.3761546865      -13.4433786767
 C       -10.6784846224        6.6238788442      -15.1463232545
 C        -8.7064390277        8.1156154608      -14.8943998173
 C        -6.3326209383        7.0785082700       -8.8975894268
 C        -4.6988875694        8.1953589787      -10.3971453896
 C        -1.5094397605        2.9474705460       -7.8895874608
 C         0.2278529864        3.0714689262       -9.6840763142
 C         1.8220494192       -4.1479537803      -11.5217175054
 C        -0.2023314390       -4.3448760570      -10.0295094714
 C         2.4754321309       -5.0109706978       -4.2682575218
 C         4.5857498728       -6.3868904846       -5.0437223822
 C         0.9530830533      -11.5456272850       -4.4030224379
 C        -0.6117962942      -11.6471546318       -2.5507771399
 C         3.6649576921       -8.3273515603        2.4437122295
 C         3.9929708204       -6.3440277710        0.6987214699
 C         9.1569277954      -11.0537907584       -1.1239391567
 C         8.7881174508       -9.8828784390       -3.4526623562
 H         6.5511962935      -13.4636468360       -2.9640066299
 H         7.8414979949      -13.1212394820       -1.7800328822
 H         8.1114814712      -13.0854133728       -3.5384748865
 H         8.9413401776       -7.6796707968       -0.2294627662
 H         8.2416083450       -9.2120836502        0.6179894061
 H         6.4502156463       -6.9040147871       -0.2488238262
 H         7.1924130269       -6.8492977709        1.3125767834
 H         2.5181971594      -10.2697222887        1.2389969219
 H         3.5452818915      -10.8852356857       -0.2641074865
 H         0.7135820637       -9.7274092840       -0.7419938406
 H         1.0447196440      -11.2785739668       -0.1919931174
 H        -0.9744661639       -8.8986459461       -5.0289411225
 H         0.5201749742       -9.3894536823       -5.5275334454
 H         0.0773622245       -6.8899059540       -3.8021643932
 H         0.2308532169       -6.7574294674       -5.6518515262
 H         4.2591332845       -4.1623846877       -6.9331564543
 H         2.6387392822       -3.5709264937       -6.8273534898
 H         2.4653144990       -5.1494212246       -9.1700654067
 H         3.8111007745       -3.9199728983       -9.3708939114
 H        -0.8434903468       -1.5720038048       -9.3637340318
 H        -1.3826713286       -0.9858024484      -11.0767895132
 H         0.4814318353        0.7696818300      -10.6467659186
 H         0.7190153631        0.0736128885       -9.1774137808
 H        -3.3555426537        4.3472092490       -8.7613558361
 H        -4.1832358368        3.3185630795       -9.9574244038
 H        -3.4115452060        5.2268817452      -11.7640396425
 H        -3.0176719641        6.1612753283      -10.3097513724
 H        -8.2908016017        7.6969431960      -10.2379235196
 H        -8.2203138629        6.0982368057      -10.2582198936
 H        -9.6199770922        7.8781813166      -12.3028222249
 H       -10.1245977350        6.3532847279      -11.5849362642
 H        -6.6409885997        6.8781913423      -15.6980552531
 H        -7.3335771369        6.3795437089      -17.3754094621
 H        -5.1675397800        5.0192674504      -16.7315188123
 H        -6.6368473295        4.0681141383      -16.8957918275
 H        -4.6232002337        0.4461959026      -13.8483089327
 H        -6.0400326138       -0.4355064032      -14.5359493437
 H        -7.1483782449        1.2497193962      -12.4939127410
 H        -5.8388003330        0.1787042356      -11.7810671490
 H       -11.2435803217       -0.9872335289      -13.7260367540
 H        -9.7251815771       -1.5674163334      -14.3624431749
 H       -10.8941008769       -0.6590379417      -16.2832460055
 H        -9.5595901513        0.3557452866      -15.7206209015
 H       -12.4522401176        2.8053836550      -17.7887633333
 H       -14.0831918187        2.4519370499      -17.9757120094
 H       -13.7770091953        1.4864068470      -20.2977895253
 H       -12.1134286586        1.4179421188      -20.0938562502
 H        -9.8869383057        4.6329348689      -20.6259647769
 H       -10.7092280987        5.7249105447      -21.8874897979
 H        -9.1277996567        4.8771429175      -22.1208671496
 H       -13.7822004486        2.0778670971      -23.0031998662
 H       -12.4117876573        1.3274100801      -22.4214959175
 H       -12.2371948632        2.2275096333      -23.8821240875
 H       -12.8827866042        5.5467247153      -22.0415107679
 H       -14.0782040146        4.5633970949      -22.8324376573
 H       -12.5777283727        4.9174523429      -23.6247305304
 H       -14.6150946602       -0.7015855679      -15.9140280759
 H       -14.0181887806       -0.1821401154      -14.3548956250
 H       -12.9280288851       -1.2084746449      -15.3282675131
 H       -13.6920951981        3.0556303051      -15.9914506040
 H       -14.0369483870        2.3664794880      -14.4951102617
 H       -14.9882036745        1.7982446004      -15.9464951824
 H        -9.7929396228       -2.5172741893      -12.8390337349
 H       -10.3767635773       -1.9665695521      -11.2090682029
 H        -8.7629822885       -2.7157027829      -11.4044943723
 H        -7.9494126221        0.7962548929      -10.6498043411
 H        -8.9268710757       -0.5035263358       -9.8686322725
 H        -9.6999632617        0.8854186851      -10.6748824236
 H        -3.5128847787        1.6803641037      -15.7794670634
 H        -3.4528170515        3.3238514350      -16.0868995303
 H        -4.6705929660        2.3721645685      -16.8648222660
 H        -3.8423684450        2.5423788961      -12.9938579691
 H        -5.0051122657        3.8942030663      -12.6497289519
 H        -3.6141810909        4.1197552054      -13.8284523120
 H       -11.1375558079        7.5233217587      -14.6521648425
 H       -11.1904091024        5.7580078184      -14.8116153368
 H       -10.9694186680        6.8764034938      -16.1620142916
 H        -7.6909865926        8.2692933982      -14.5571775591
 H        -9.4377208006        8.6855516410      -14.3121783094
 H        -8.7130034223        8.3767824588      -15.9720492942
 H        -6.7769807892        6.1647294100       -8.6776154360
 H        -6.9955004908        7.9068408331       -8.7984146446
 H        -5.4559914470        7.1292953527       -8.2045485755
 H        -4.2984612044        8.5269687906      -11.3647205741
 H        -3.7920983552        8.1179542397       -9.7201619918
 H        -5.1887249491        9.0370998522       -9.9569861749
 H        -2.4878043337        2.5709862380       -7.6271053790
 H        -1.3926150395        3.9481814199       -7.4182638767
 H        -0.7019043768        2.2574335705       -7.4128910958
 H         0.4000631063        4.2171742112       -9.5942806512
 H         0.4131310983        2.8333923170      -10.7541451732
 H         1.0306578990        2.4161587029       -9.1674646022
 H         2.5443931045       -4.8487746681      -11.0601742409
 H         2.2565548084       -3.4536098092      -12.2166571613
 H         1.2097421690       -4.6626917120      -12.2103668504
 H         0.2258607143       -5.3064710494       -9.8490890702
 H        -0.8759968523       -4.3888097287      -10.7958927489
 H        -0.6825492157       -3.9037131641       -9.1110990453
 H         2.5077856698       -5.3153745363       -3.2150343662
 H         1.5175047766       -4.5737303486       -4.5086912720
 H         3.2287519582       -4.2523331511       -4.3472903322
 H         4.9957832241       -5.7517905837       -5.8374371853
 H         4.8539629785       -7.4318842466       -5.2431350450
 H         4.9808022772       -5.9323203655       -4.1051889691
 H         1.7433733191      -10.9427831891       -4.9178407948
 H         0.0548505216      -11.6038155670       -5.0655701373
 H         1.2916579070      -12.5317617478       -4.3577615262
 H        -1.0854595242      -11.2001828850       -1.6105653931
 H        -0.2895686036      -12.6998461229       -2.4879264247
 H        -1.3597766810      -11.5809345485       -3.3143942280
 H         4.2989254196       -7.8472245524        3.1919185849
 H         3.6172328718       -9.3841263910        2.7774035275
 H         2.6397883768       -7.9310068534        2.6690399455
 H         4.8826618988       -5.8423045839        1.0406066726
 H         3.1671288012       -5.8328076314        1.1812840305
 H         4.1174517435       -6.0395685378       -0.3198585597
 H         9.6599464512      -11.8349451939       -1.6833211854
 H         8.5345315452      -11.4966923478       -0.3229445346
 H         9.8188042787      -10.3675989028       -0.6509463696
 H         9.6617564122       -9.2890201713       -3.3176985616
 H         8.0071359025       -9.3531126054       -4.0421319183
 H         8.9333044079      -10.8131726816       -4.0123848406
 Na        4.3716486040       -9.3385605670       -2.9325078778
 Na       -9.2041919958        3.0567637519      -14.5991894685
