232

 C         7.3536828305      -12.8164383803       -2.7120370599
 C         6.9925030222      -11.4636328003       -2.5010881880
 O         5.8547539228      -11.0842774882       -2.7359664838
 C         8.1649897619      -10.4612088947       -2.0693651128
 C         7.5939390074       -9.1275105644       -1.4972872960
 O         6.7234034801       -8.5426929719       -2.1174250422
 C         8.0010808537       -8.4967112093       -0.1532437850
 C         6.8542135758       -7.5527034203        0.3924691477
 C         5.6612007684       -8.3964663079        0.8929790185
 O         5.9588291918       -9.5263595884        1.2577634804
 C         4.2448839118       -7.9496301264        1.0517974878
 C         3.4330229625       -8.8317132871       -0.0487574960
 O         3.4205402478       -8.3453192621       -1.1784677108
 C         2.7494834750      -10.1914976884        0.2468894467
 C         1.5099400188      -10.4267857865       -0.5970732425
 C         1.8076004907      -10.7632772431       -2.1505041323
 O         2.8829070889      -11.0544210250       -2.4555518841
 C         0.6585147602      -10.7976174657       -3.1594067440
 C         0.1164378860       -9.3528080416       -3.2603233619
 O        -0.2898592158       -8.6373830031       -2.3933402012
 C         0.1788604137       -8.8142183768       -4.6967959067
 C         0.8233787915       -7.3811178532       -4.6416542275
 C         2.3448545441       -7.4159721821       -4.8101387338
 O         2.9066231294       -8.4584983533       -4.6322832337
 C         3.0451183397       -6.0748059322       -5.2637342748
 C         2.8064071411       -5.7925927222       -6.7947866643
 O         2.1622608786       -6.5600284986       -7.5660519763
 C         3.1379070134       -4.4176506426       -7.3391517929
 C         2.9335622268       -4.2881794690       -8.8572431846
 C         1.9291769179       -3.1645671543       -9.0772788434
 O         1.7612006669       -2.1654471861       -8.4205243709
 C         1.0402699109       -3.4581858438      -10.4186741343
 C         0.6242732169       -2.0425252550      -10.9522801546
 O         1.3656889925       -1.5360389475      -11.7671456459
 C        -0.6018604892       -1.3284481116      -10.3643198454
 C        -0.2429751348        0.1367828397      -10.0050663526
 C        -1.4018550115        0.9830692274       -9.5995153461
 O        -2.4582966735        0.4996914603       -9.2239119070
 C        -1.1399204699        2.5237525808       -9.3317175346
 C        -2.1981775610        3.1957620703      -10.4318842800
 O        -1.9916842181        2.8813705599      -11.5808305714
 C        -3.3542442155        4.0019957135       -9.9180498377
 C        -3.6007492102        5.2915629119      -10.6706966600
 C        -5.2064002727        5.6241957624      -10.6250451313
 O        -6.0356872340        4.7309169965      -10.6673452248
 C        -5.7262428302        7.1609779974      -10.3522517722
 C        -6.8311782290        7.3201429879      -11.5669749505
 O        -6.5602077955        7.5837350835      -12.6789012066
 C        -8.2220554756        6.9520439081      -11.0914476194
 C        -9.2378546617        6.9517703595      -12.1194182968
 C        -9.1391246053        5.9170683874      -13.1767459436
 O        -9.2345086579        4.7392924649      -13.0040250207
 C        -9.2289722356        6.6552310569      -14.7960122732
 C        -8.5247320984        5.6903658231      -15.7967379980
 O        -8.8393821831        4.5387955991      -16.0000240812
 C        -7.0650451711        6.0583618057      -16.4007578151
 C        -6.2131903363        4.8037845239      -16.4754971972
 C        -6.0462538917        4.2154340122      -15.0841150813
 O        -6.5896893684        4.6912959792      -14.1038117200
 C        -5.2614835228        3.0129684256      -14.8178398962
 C        -6.2406608451        1.8515443249      -14.6378162402
 O        -7.4186521897        2.0004349712      -14.7987124256
 C        -5.7667994979        0.4839496911      -14.0288581160
 C        -6.4177594094        0.2831985622      -12.6852547881
 C        -7.5051696010       -0.8133973953      -12.7328575455
 O        -7.2378798720       -1.7497299407      -13.4213042212
 C        -8.9091726247       -0.6397759933      -12.0297697223
 C        -9.6904889845        0.1235450151      -13.0911961263
 O        -9.5640267115        1.3244483120      -13.1305364529
 C       -10.3236375280       -0.7302694468      -14.1615257699
 C       -10.6054225061        0.1182687926      -15.4905976777
 C       -11.6065382887        1.2397479628      -15.5116394760
 O       -11.1717227751        2.3797791292      -15.4144679371
 C       -13.0238237505        0.8902760430      -15.8293352669
 C       -12.8564994228        0.7767809899      -17.4236125426
 O       -12.6208968928       -0.3037472000      -17.9419903328
 C       -12.9840602915        2.1587796976      -18.2888469201
 C       -12.9907878681        2.1214405089      -19.8277479882
 C       -12.7035648506        3.5157170844      -20.4936720562
 O       -12.9033461772        4.5570093220      -19.9078370559
 C       -12.3314204923        3.4665688443      -22.0627191173
 C       -10.7342304060        3.5198903921      -22.0711037086
 O       -10.0965193737        2.5191930800      -22.2789109215
 C       -10.0761919721        4.8133938411      -21.6084387569
 C       -12.6930160400        2.2551757742      -22.9644420775
 C       -12.9796867879        4.6497544748      -22.7749831470
 C       -13.6876862318       -0.4700582584      -15.3121758759
 C       -13.9783341375        2.1304159484      -15.4632604118
 C        -9.4706069779       -2.0311216465      -11.6326979983
 C        -8.8529405370        0.0797649471      -10.6464139394
 C        -4.2493471826        2.5148124083      -15.9231823010
 C        -4.3492562515        3.2473414444      -13.5735753111
 C       -10.7807383068        6.5969465802      -15.0770008538
 C        -8.7763828227        8.1245557256      -14.8796258902
 C        -6.4305398305        7.2121943821       -9.0008895280
 C        -4.6189966674        8.1953210569      -10.3601778975
 C        -1.4709206551        2.9489667712       -7.8688647639
 C         0.2516452043        3.2538063532       -9.6321840951
 C         1.7901623498       -4.1748755185      -11.5328879750
 C        -0.0822295709       -4.3876034317       -9.9546545949
 C         2.6804170893       -4.9081194835       -4.2350798218
 C         4.5651581107       -6.2650821133       -5.1317198879
 C         1.1723629731      -11.4359423778       -4.4521284173
 C        -0.5514390131      -11.6412795818       -2.4867634410
 C         3.6512685723       -8.3009788999        2.3733382506
 C         3.9529701851       -6.5144737602        0.7445933812
 C         9.1460659058      -11.0580334672       -1.0786328589
 C         8.9013392153      -10.0969424017       -3.4119282407
 H         6.6223738774      -13.2684863686       -3.3389947254
 H         7.5732975707      -13.3709045777       -1.7598988050
 H         8.3463492136      -12.8456749615       -3.3245080767
 H         8.8423242947       -7.8057152871       -0.3037883090
 H         8.2455416445       -9.1357019283        0.6737384515
 H         6.4938282484       -6.7945869096       -0.2970364770
 H         7.1708652966       -6.9787066825        1.2817614257
 H         2.3550563945      -10.3228728171        1.2473348430
 H         3.5460290630      -10.9398256759       -0.0859846891
 H         0.7626856191       -9.5713487589       -0.6100573473
 H         0.8606857998      -11.2328998052       -0.2085205817
 H        -0.8480874682       -8.8535569679       -5.0463971827
 H         0.6563389986       -9.4674973570       -5.3508578842
 H         0.6655393350       -6.9507690807       -3.6444758445
 H         0.4402786814       -6.6746101533       -5.4060786275
 H         4.2104351181       -4.1325265050       -7.1356552194
 H         2.5865224486       -3.6032304632       -6.8664320477
 H         2.3735135677       -5.1034157607       -9.2092872058
 H         3.7936280057       -4.0124963088       -9.4885484689
 H        -1.0097572118       -1.7100095376       -9.4537087653
 H        -1.3460134478       -1.2176849294      -11.2360127516
 H         0.1897911131        0.6594247728      -10.8737456169
 H         0.5606115023        0.0877033810       -9.3133602775
 H        -3.2498607505        4.2506659968       -8.8691699226
 H        -4.2305353918        3.2929746624       -9.9541324356
 H        -3.3237537357        5.2593075586      -11.7101508823
 H        -3.0408345542        6.1368757132      -10.2179728482
 H        -8.3164910038        7.4882215270      -10.1456883129
 H        -7.9767828347        5.9447353974      -10.6194271153
 H        -9.2369070390        8.0211719279      -12.5894263679
 H       -10.2190349465        6.8280121586      -11.6185257910
 H        -6.4709487467        6.8498566628      -15.8582781881
 H        -7.2913232716        6.2792524497      -17.4565085450
 H        -5.2792931459        5.2260815769      -16.7321834252
 H        -6.6138058566        4.0905828436      -17.2949042159
 H        -4.6572623488        0.7056836542      -13.9002965247
 H        -5.8819256330       -0.4176625744      -14.5917037547
 H        -7.0273340995        1.1340324713      -12.2829475476
 H        -5.6224716503       -0.0105737427      -11.9225472612
 H       -11.2716363887       -1.0928802296      -13.7500890592
 H        -9.7185688723       -1.6480154288      -14.3059333874
 H       -11.0342413468       -0.6195125943      -16.1104510724
 H        -9.5792329730        0.3689471063      -15.8366001632
 H       -12.1609569654        2.7658079091      -17.9217836393
 H       -13.8219518987        2.6051810068      -17.7949521364
 H       -13.8136741915        1.7561155345      -20.3541601203
 H       -12.2089865439        1.4018460845      -20.0299939412
 H       -10.1677071548        4.9512840353      -20.5475435683
 H       -10.5847486632        5.5431627172      -22.2462854105
 H        -9.0059198014        4.7552196567      -21.9221962249
 H       -13.7298950494        1.8838627390      -22.8895811886
 H       -12.0548952894        1.3794731503      -22.5942617980
 H       -12.4757289323        2.4918939956      -24.0004433240
 H       -13.3514226011        5.4243802711      -22.0675422606
 H       -13.7858198270        4.3466891441      -23.4432876759
 H       -12.2979787957        5.1039866805      -23.3927195966
 H       -14.6870246364       -0.5023277885      -15.6757625380
 H       -13.8182056274       -0.4123710860      -14.2113186725
 H       -13.1086434267       -1.3075286549      -15.5983412853
 H       -13.5026963174        3.0323756101      -15.5873084036
 H       -14.1987429078        2.1223176555      -14.3887056787
 H       -14.8568080212        2.0364005305      -16.1401351846
 H        -9.4911195488       -2.7559525439      -12.5005164244
 H       -10.4540941260       -1.9710700003      -11.1521908681
 H        -8.8049210589       -2.3638998074      -10.8477292569
 H        -7.8765315302        0.6051922269      -10.6148713411
 H        -8.9061062547       -0.6759428312       -9.8922365796
 H        -9.6870478077        0.7475948188      -10.5350539500
 H        -3.9065146276        1.4674315725      -15.7065835573
 H        -3.4083767412        3.1006887683      -15.8622504961
 H        -4.6000152240        2.5229164691      -16.9824516233
 H        -4.0551342415        2.3160039316      -13.0267741414
 H        -4.8518266059        3.9007809578      -12.8818377513
 H        -3.4224530540        3.7696796436      -13.9692488593
 H       -11.3292961317        7.3223158995      -14.5644515215
 H       -11.1800927587        5.5855144821      -14.7889437528
 H       -11.0658384889        6.8856644929      -16.0656359865
 H        -7.6530584681        8.0925839704      -14.9347758554
 H        -9.1435219235        8.6998643813      -14.0632738070
 H        -9.0754836741        8.5395031636      -15.8652943871
 H        -7.2355727852        6.5039744796       -8.9906574295
 H        -6.8040482070        8.2269446473       -8.8948670257
 H        -5.7330526549        6.9285781867       -8.1830724337
 H        -3.9461101730        8.2462999588      -11.1936574848
 H        -3.9983610506        8.2105319904       -9.4533082169
 H        -5.1086658548        9.1528086483      -10.2376665896
 H        -2.5568785282        2.9548279852       -7.7021466264
 H        -1.1246986191        3.9446268385       -7.5973282447
 H        -0.9353829377        2.3000906884       -7.1546743081
 H         0.0488610732        4.3085935537       -9.6430111580
 H         0.6350671090        3.0226215984      -10.6173688492
 H         1.0913829109        2.9895751318       -8.9198173167
 H         2.4633667126       -4.9209663296      -11.1821686596
 H         2.1933419130       -3.4860112138      -12.2191028977
 H         1.0758614104       -4.6434513430      -12.2944987702
 H         0.4261805150       -5.3255914335       -9.7482638436
 H        -0.8852027835       -4.4525057338      -10.6873620035
 H        -0.4622757991       -3.9747712230       -9.0639802243
 H         3.0339788340       -5.2263477410       -3.2204947018
 H         1.6530152399       -4.7001184126       -4.1767595645
 H         3.2240806475       -3.9499242131       -4.4079380129
 H         4.9967578137       -5.5851514040       -5.8405198537
 H         4.8583106487       -7.2727194057       -5.4365158674
 H         4.8872882960       -5.9620895458       -4.1330134640
 H         1.9768381266      -10.9682496665       -4.9169659713
 H         0.3379806152      -11.4787230714       -5.1505058874
 H         1.4068575865      -12.5445495757       -4.2904704037
 H        -0.9773556181      -11.0889408280       -1.6894447407
 H        -0.2010324859      -12.7119634146       -2.2866048747
 H        -1.3393752872      -11.7134684175       -3.2492878384
 H         4.2467195201       -7.9507035745        3.3032894322
 H         3.3259389070       -9.3120767888        2.5444116076
 H         2.6333680808       -7.7768601009        2.4500886288
 H         4.5133970877       -5.8172796248        1.3321550273
 H         2.8920070150       -6.2925881365        0.8607740804
 H         4.3345566205       -6.1195899183       -0.2313914062
 H         9.6008933951      -11.9153231345       -1.5034627688
 H         8.5799115869      -11.3369449207       -0.1733477119
 H         9.8235929547      -10.2431533715       -0.7454410479
 H         9.7164806362       -9.3469305176       -3.2736470348
 H         8.1151645737       -9.7293347036       -4.0127750544
 H         9.2593105814      -10.9693065318       -3.9038894721
 Na        4.4431383189       -9.3096923172       -3.1684707398
 Na       -9.5161338908        3.0537928848      -14.3917699304
