232

 C       -19.0782497305      -10.1433617211        0.1470834101
 C       -18.2988921827      -11.2993184847       -0.6165120571
 O       -18.1470140740      -11.2917843080       -1.8382300240
 C       -17.6896741406      -12.5066885865        0.2632798479
 C       -16.1872929867      -12.6428383086       -0.0988985810
 O       -15.9632444689      -12.9959235885       -1.2661912847
 C       -14.9598301340      -12.5679288551        0.8950571952
 C       -13.8596028529      -11.8147413415        0.2535353083
 C       -14.3075609145      -10.7400705893       -0.7504301573
 O       -15.4642474362      -10.6191955367       -1.0635652400
 C       -13.2346725881       -9.9144840657       -1.4552119435
 C       -13.3401816349      -10.3473882540       -2.8824322807
 O       -13.4519141544      -11.5195936776       -3.0526797035
 C       -13.4007312083       -9.4061526291       -4.0998644779
 C       -13.9529628585      -10.2010422178       -5.3146273050
 C       -15.3801987416       -9.8413795788       -5.5796633646
 O       -16.2257108852       -9.9939702931       -4.7245969661
 C       -15.8102994981       -9.2726951121       -6.9966009163
 C       -14.9197161977       -7.9212598832       -7.2928769688
 O       -14.0318636188       -7.6523596707       -6.5064245421
 C       -15.3335608609       -7.1393088936       -8.5190748981
 C       -14.2771456564       -6.0559913307       -8.6635113096
 C       -14.5856728200       -5.0831175087       -9.8373320747
 O       -15.5123767069       -4.3578570792      -10.0570264591
 C       -13.3033520208       -5.0445127975      -10.8953568339
 C       -12.1890666569       -4.2972380979      -10.0610854229
 O       -11.6227315860       -4.8102670502       -9.0866955951
 C       -11.8937995084       -2.8557549615      -10.3242163483
 C       -10.7399710842       -2.2536816968       -9.4670252175
 C       -10.3018781780       -0.9139866110      -10.1151614971
 O       -10.6811067276       -0.6630108354      -11.2637468346
 C        -9.4994333730        0.1377170964       -9.3185537026
 C        -7.9188251726       -0.2972562868       -9.6006244867
 O        -7.4422771674       -1.0725090404       -8.7834683013
 C        -7.2129740002        0.4980097607      -10.5756285966
 C        -5.7638574398        0.0308189072      -10.8344347997
 C        -4.8461341240        1.2668075048      -11.1785999339
 O        -5.1600898468        2.3583653380      -10.7573478806
 C        -3.4891673425        1.1266287557      -11.8758130262
 C        -2.5357203210        0.2834299439      -11.0419051042
 O        -2.7359667500       -0.9114238995      -10.9696667765
 C        -1.4628524746        1.0402000580      -10.2604422093
 C        -0.5142993314        0.1503246973       -9.4618691300
 C         0.3851563143        0.9622342473       -8.4950733141
 O         0.1444336384        2.1349321163       -8.2006110709
 C         1.5797064834        0.3432559955       -7.6154746205
 C         2.8066548493        1.2605217468       -8.1311673531
 O         3.4494328407        1.1654316721       -9.2069821725
 C         3.0232177473        2.6700010705       -7.3870618607
 C         4.0727105158        3.4883174269       -8.0619725676
 C         3.6677638302        4.0108659484       -9.4149924049
 O         2.5149819082        3.8688460926       -9.8630747926
 C         4.6212653393        5.0955102784      -10.0901870374
 C         4.9594829439        4.6689305860      -11.4607535807
 O         6.0774524276        4.3112152978      -11.9031023242
 C         3.7711399259        4.5617190679      -12.4456768532
 C         3.6591277788        6.0108347916      -13.0693241405
 C         4.1325538855        6.0024948600      -14.5312901672
 O         4.4520049819        4.9355465804      -15.0839914362
 C         4.1484453280        7.4099801115      -15.2845133178
 C         5.4672479718        7.5106642053      -16.2118365197
 O         5.3217412219        7.4238196025      -17.4512377304
 C         6.7526009832        7.8193707835      -15.4719490723
 C         7.9686379623        7.0967027933      -16.0598081394
 C         7.8763914402        5.6346665019      -16.2242332451
 O         7.5271491604        4.9491419543      -15.2933276432
 C         7.9816615565        5.0488861222      -17.6150929276
 C         9.2345236709        4.0921199530      -17.5704580460
 O        10.1168105846        4.3056481975      -16.7171216199
 C         9.4692721900        2.9743653513      -18.6272078573
 C        10.4859508541        1.9548634813      -18.1084407920
 C         9.8865052587        0.5668330855      -18.0950397990
 O         8.7697697226        0.4172433226      -18.5320082872
 C        10.5360415164       -0.5692169523      -17.2151623157
 C        10.3596592164       -0.2685740687      -15.6598651194
 O        10.8876942568        0.6689767837      -15.1689941183
 C         9.4640361326       -1.1352748203      -14.6985290958
 C         9.0266987497       -0.2828191174      -13.5061004461
 C         7.7224427548        0.5280641255      -13.6411782156
 O         7.7838506549        1.7249935109      -13.4160624369
 C         6.3487395129       -0.0320452261      -14.0731389250
 C         5.9287671263        0.6025314516      -15.5185561247
 O         5.6724160479        1.7991274697      -15.5639179961
 C         5.9185467340       -0.3553064427      -16.6904671624
 C         6.2606183145       -1.5073363563      -14.1313490002
 C         5.2569136594        0.4315981874      -13.0527165266
 C         9.9014306902       -1.8349872587      -17.7535307241
 C        12.0717870789       -0.6327542155      -17.3662499404
 C         6.7538934857        4.1478434540      -17.9029058203
 C         8.2444007932        5.9862936496      -18.8059706952
 C         2.9502253819        7.3947564803      -16.1968292687
 C         4.2713691209        8.7090678069      -14.3814066509
 C         3.7995664372        6.4838435821      -10.2849482874
 C         5.9079422536        5.4688728913       -9.2475075356
 C         1.3767253660        0.5969925939       -6.0108339228
 C         1.9101554966       -1.0648850838       -8.0060602954
 C        -3.7265977111        0.5572510672      -13.2839360143
 C        -2.9759953274        2.6743990959      -12.0993235463
 C        -9.8761901357        1.5552991504       -9.9096083952
 C        -9.6601538878        0.0142409452       -7.8213015291
 C       -12.7092528299       -6.3997278009      -11.4175808079
 C       -13.7735242436       -4.1673507694      -11.9956193248
 C       -15.3556012301      -10.2702340936       -8.0532981082
 C       -17.2931493026       -8.9584675466       -6.9648854413
 C       -13.5277871203       -8.4724276435       -1.0946973063
 C       -11.8357075221      -10.2889052406       -1.0179572813
 C       -17.9885021762      -12.3476128374        1.7515940060
 C       -18.4232968999      -13.8276949924       -0.3245512771
 H       -18.3611379871       -9.4748896454        0.7231993295
 H       -19.8103653268      -10.6002043979        0.7520102123
 H       -19.6088897420       -9.5460410861       -0.5991250817
 H       -14.6594869499      -13.5692146819        1.2505070953
 H       -15.3109825985      -12.0411336257        1.7953504934
 H       -13.2522034568      -12.5143423274       -0.4084127391
 H       -13.0838101283      -11.3925915774        0.9148301400
 H       -12.3870748139       -9.1160778693       -4.3845198744
 H       -13.9573433305       -8.4849095993       -3.8310559631
 H       -14.0542633086      -11.1952858078       -5.0468731196
 H       -13.2620313325      -10.0494066835       -6.1384798888
 H       -16.3252781469       -6.6714252996       -8.5217901045
 H       -15.3847821451       -7.8213218366       -9.3712116808
 H       -13.2857748310       -6.5129644033       -8.8183587066
 H       -14.1727537923       -5.5718068232       -7.6994164053
 H       -12.7916133584       -2.2960736900      -10.4699697682
 H       -11.5347862280       -2.6597064145      -11.2873185571
 H        -9.9211511431       -2.9914576592       -9.4562003789
 H       -11.0891836144       -2.2405019230       -8.3950055904
 H        -7.2374256057        1.5113380050      -10.2258190178
 H        -7.7666410451        0.4964844097      -11.4934327690
 H        -5.7368615627       -0.7146371397      -11.6207534520
 H        -5.5654092940       -0.3802236191       -9.8295188648
 H        -2.1003405804        1.7854154319       -9.7531878769
 H        -0.8469449638        1.6196795791      -10.9528027797
 H         0.0155236014       -0.6184020428      -10.1374648535
 H        -1.2002572020       -0.4612185082       -8.8839290944
 H         3.2725556612        2.4904804660       -6.2896240346
 H         2.0718008141        3.1028880757       -7.5051555882
 H         5.0678987135        2.9557877394       -8.1134863637
 H         4.3616665575        4.3317012143       -7.4906708885
 H         2.9103020105        4.2633126422      -11.8934215737
 H         4.0514754484        3.9058480730      -13.2495292827
 H         4.2649605476        6.7564159823      -12.5635379620
 H         2.6126855169        6.4293390796      -13.0127952713
 H         6.7060528591        7.5063698228      -14.4368852575
 H         6.9870674380        8.8723429761      -15.5256657004
 H         8.7828059126        7.0560217500      -15.2747672957
 H         8.4343052479        7.5360527399      -16.9965082218
 H         9.8610424979        3.4466883091      -19.4977087034
 H         8.4757622772        2.5305507662      -18.9616698522
 H        10.6405347304        2.2046571454      -17.0072776850
 H        11.3907787193        2.0157478603      -18.6766522890
 H         9.7937697855       -2.1424141246      -14.4268250455
 H         8.6482808683       -1.4591091417      -15.2903597357
 H         9.8406270146        0.4125304834      -13.4171239211
 H         9.0154966032       -0.9511724197      -12.5978130543
 H         6.8047544537       -0.9236414827      -16.9141888833
 H         5.7726687517        0.1593678217      -17.6156508265
 H         5.0829263764       -0.9862948586      -16.5644538828
 H         5.2053605741       -1.7241965539      -14.2595934128
 H         6.6652537628       -1.9317866220      -13.1610716799
 H         6.8166160055       -2.0674562156      -14.9065363368
 H         4.5900733078       -0.3693052331      -12.7975223888
 H         4.7562812345        1.2076092824      -13.5479775367
 H         5.6040077631        0.9422181079      -12.1381493049
 H        10.2251071432       -2.0491954902      -18.7605546905
 H         8.8066960423       -1.8138515604      -17.6110611179
 H        10.2753748828       -2.7077830795      -17.1719541730
 H        12.2600678642       -0.4122132112      -18.3870179232
 H        12.3577327560       -1.5697725647      -16.9502174266
 H        12.5837068942        0.1217522537      -16.7810289101
 H         6.8065707078        3.1546799911      -17.2964923073
 H         6.6781262956        3.8424685987      -18.9117828552
 H         5.8945227321        4.7957309287      -17.6126136934
 H         8.9987344198        6.7832449584      -18.6738813848
 H         7.2900711555        6.5387312350      -19.0790925080
 H         8.3575368846        5.5209058057      -19.7912139387
 H         2.0788183685        7.0811964965      -15.6855936200
 H         3.2991275719        6.7249064037      -16.9909638642
 H         2.7053163091        8.3356072830      -16.6513627616
 H         4.3796252961        9.5520557538      -15.0106912588
 H         5.0865518020        8.5467638091      -13.7459400549
 H         3.3989014583        8.8372763149      -13.7824039705
 H         3.6147793305        6.9487688986       -9.2714635715
 H         2.8386611220        6.5521649168      -10.6826158837
 H         4.3622392455        7.2597265692      -10.8851674989
 H         6.4499852564        6.2705372069       -9.7443554994
 H         6.6996561939        4.6471064369       -9.3110665836
 H         5.5350631698        5.7409382185       -8.2429431440
 H         0.7060745105        1.4226147982       -5.7594572072
 H         2.3149966169        0.6024991902       -5.5362332428
 H         0.8264153513       -0.2275152074       -5.6203929869
 H         1.0406760054       -1.6992628956       -7.8827089513
 H         2.7095235845       -1.5553240751       -7.5233030207
 H         2.2407474987       -0.9414518146       -9.0428854946
 H        -4.7655854469        0.1285582072      -13.3131048262
 H        -3.0259512376       -0.1656605337      -13.7105589927
 H        -3.4881030464        1.3585001030      -14.0338842351
 H        -1.9859509082        2.6008368866      -12.6171301454
 H        -2.8010550778        3.2094241327      -11.1689591867
 H        -3.7565174820        3.2430306776      -12.5477678459
 H       -10.9702393996        1.5781533025      -10.0340182079
 H        -9.2959123429        1.6297279154      -10.8911700185
 H        -9.5037681864        2.3916459607       -9.3033121923
 H       -10.7268379994        0.0616631578       -7.5337249820
 H        -9.1990873358        0.8757475649       -7.3491969892
 H        -9.2864206376       -0.9489284660       -7.4748596294
 H       -11.9434194155       -6.2099412853      -12.1283703365
 H       -13.5236459458       -7.0075793605      -11.8829414184
 H       -12.3686801987       -6.8597949826      -10.5004751128
 H       -14.7080805256       -4.5475853088      -12.3842033401
 H       -13.0959924322       -3.9801618079      -12.7945122577
 H       -14.1812991713       -3.1527306200      -11.7132551407
 H       -14.2973478582      -10.2119025786       -8.1187729315
 H       -15.9233759317      -10.1293661492       -8.9997524609
 H       -15.6049801304      -11.3214649516       -7.6910428603
 H       -17.5146455707       -8.3652417884       -6.0658853742
 H       -17.7023484197       -9.9439438046       -6.7509244275
 H       -17.8409357893       -8.6324918707       -7.7960736383
 H       -14.5699937839       -8.1538499723       -1.2366733710
 H       -12.8892146481       -7.8261941464       -1.6930679565
 H       -13.3665204795       -8.2342725123       -0.0544973750
 H       -11.3736117948      -11.3021340186       -1.2296887101
 H       -11.7679484686      -10.1984796736        0.1182555856
 H       -11.0972887505       -9.5494890274       -1.3027850731
 H       -17.7899977846      -11.2526028802        1.9460289528
 H       -17.3719121834      -12.9740085408        2.4385497989
 H       -19.0389155490      -12.5571196175        2.1213795817
 H       -18.8066077869      -14.4642740430        0.5021476900
 H       -17.6916574348      -14.3970067718       -0.8497595074
 H       -19.2296591442      -13.6828001963       -1.0448760108
 Na      -16.1034392285      -11.7724110346       -3.0205387008
 Na        6.0732041287        3.3853042747      -14.1437978286
