232

 C         7.4040387352      -13.4498221928       -2.3351508404
 C         7.2007150989      -11.9581377105       -2.4534419380
 O         6.1665192701      -11.5779604558       -2.9446967433
 C         8.3496708892      -10.9239533924       -1.9274628957
 C         7.7051945688       -9.5654100957       -1.8451848553
 O         7.0964115699       -9.1353108014       -2.8415818060
 C         7.8701508847       -8.7575338500       -0.5661813372
 C         6.5937861868       -7.9028240396       -0.1675940462
 C         5.6538671692       -8.5498394476        0.9009435043
 O         5.9073610200       -9.6257423640        1.4783664125
 C         4.2451856977       -7.9719710386        1.2788323563
 C         3.4139113485       -8.6551315162        0.0342628790
 O         3.6167807176       -8.2311760217       -1.0777868635
 C         2.8210069882      -10.0318883267        0.2207257189
 C         1.5486585349      -10.1600028982       -0.7740710224
 C         1.9876710053      -10.7137978419       -2.2428077168
 O         3.0891766104      -11.1215233371       -2.4069711544
 C         0.8972924991      -10.6986495399       -3.2285688771
 C         0.5975216359       -9.1124526237       -3.4078785159
 O        -0.0263406567       -8.5680563872       -2.5203988862
 C         0.8476529464       -8.3759289855       -4.6548672853
 C         1.5795260523       -7.0682892451       -4.3606888668
 C         3.1531832598       -7.0997629171       -4.6609232683
 O         3.7479380800       -8.0911345057       -4.2968249354
 C         3.8893703151       -5.8611440358       -5.3860440104
 C         3.1345288377       -5.6145429643       -6.7710243770
 O         1.8848665674       -5.7727466044       -6.9123467978
 C         3.6964026156       -4.5477526086       -7.6854955577
 C         3.1146885528       -4.5064702277       -9.1289832785
 C         1.9824458771       -3.4122545656       -9.2057227254
 O         1.9294630074       -2.4791524078       -8.4234800452
 C         0.8999382898       -3.4835406685      -10.4471768263
 C         0.3344523560       -2.0260277213      -10.9791501873
 O         0.6694154112       -1.7000987124      -12.1159437486
 C        -0.3003786888       -1.0583852711      -10.0575721947
 C        -0.9359961553        0.1674502712      -10.6628274937
 C        -1.7290882057        0.9496154149       -9.6215913417
 O        -2.7465342740        0.5005604574       -9.0984747683
 C        -1.3673446150        2.3920901442       -9.2576075018
 C        -2.2388470711        3.4383597467      -10.2419181146
 O        -1.7205046344        3.9751498930      -11.1691905309
 C        -3.8207550244        3.5727754779      -10.0211066378
 C        -4.1656251790        4.9903671817      -10.4727667121
 C        -5.5647257976        5.6302562503      -10.2585845250
 O        -6.4691880112        5.0503334526       -9.6658833229
 C        -5.7050662565        7.1574299468      -10.5970590574
 C        -6.7863946436        7.3996964097      -11.7439016621
 O        -6.5776734968        7.9721017010      -12.7592419648
 C        -8.2528017036        7.0884875588      -11.3147720389
 C        -9.2471701651        7.5335706234      -12.3688060005
 C        -9.5916548825        6.4000286458      -13.3595898876
 O        -9.6477072738        5.2447797661      -13.0451528785
 C        -9.7387004060        6.8268507192      -15.0024647732
 C        -8.8369022274        5.7155344816      -15.7271998469
 O        -9.1816627472        4.5154143845      -15.7791916090
 C        -7.3689275718        6.1890101012      -16.1473916694
 C        -6.4794775589        5.0376440388      -16.4887547040
 C        -6.1588623155        4.1781900317      -15.1808793759
 O        -6.5257617897        4.5532002202      -14.1037976094
 C        -5.4641568200        2.7335450701      -15.3117234331
 C        -6.3988651738        1.7310252777      -14.5481679040
 O        -7.5964152025        1.8974795076      -14.3696497209
 C        -5.8121083308        0.4035630858      -14.1528883973
 C        -6.3808284927       -0.1404947837      -12.8115498788
 C        -7.7558992442       -0.9762010466      -13.1260079382
 O        -7.7036660023       -1.6434982515      -14.1272632597
 C        -8.9842437511       -0.7903288830      -11.9638236797
 C       -10.0945007002        0.1750905608      -12.7315052074
 O       -10.1779617549        1.3255753660      -12.3216168663
 C       -10.8364828110       -0.4998760403      -13.8822646373
 C       -10.7826793916        0.2599198272      -15.1849050092
 C       -11.9252866311        1.2040618292      -15.2878663868
 O       -11.8775551089        2.3837601492      -14.9242190054
 C       -13.1834221495        0.6860200409      -15.9052430309
 C       -13.2579796988        0.9331630433      -17.5427937632
 O       -13.4149144361       -0.0467228166      -18.2329283001
 C       -12.9782446823        2.2882043786      -18.0660584818
 C       -12.6878441069        2.3091920338      -19.6386124327
 C       -12.3224880115        3.7242112427      -20.2465470191
 O       -12.4369641135        4.7290644381      -19.6029146472
 C       -11.8909842830        3.6802669206      -21.8047666754
 C       -10.3003025830        3.6859168447      -21.7606788590
 O        -9.7447062060        2.6660079467      -21.4850530112
 C        -9.4592559927        4.8843059688      -22.1921383973
 C       -12.5098946100        2.4261406878      -22.6389281274
 C       -12.4835798764        4.9411723125      -22.5559701294
 C       -13.5472046964       -0.7626142372      -15.7534331242
 C       -14.4325159561        1.4888690975      -15.3897189279
 C        -9.4760380974       -2.1619013996      -11.6333071355
 C        -8.5909761824       -0.0939181268      -10.5624667810
 C        -5.1021293580        2.3805359073      -16.8030283944
 C        -4.1133640366        2.9703367501      -14.6501658896
 C       -11.2578238375        6.5165156816      -15.3824050348
 C        -9.5683589973        8.2827250502      -15.4270012524
 C        -6.1179633966        7.9337047598       -9.3130437327
 C        -4.4604970838        7.8235519735      -11.1368335673
 C        -1.6019200130        2.4979963607       -7.7190439873
 C         0.1471502371        2.6599870307       -9.4330089171
 C         1.4964752662       -4.1995280791      -11.6858327170
 C        -0.2814821872       -4.3711845959       -9.8138827396
 C         3.7399939742       -4.6526771596       -4.4454451238
 C         5.4357834443       -6.0545114198       -5.5753636072
 C         1.1624607220      -11.3155687001       -4.5765262013
 C        -0.4930617404      -11.3903822179       -2.7244665184
 C         3.9365658559       -8.5051664322        2.6997379650
 C         4.1338327440       -6.4666259194        1.1493517667
 C         8.9696886286      -11.3975673080       -0.6431728277
 C         9.5150179390      -10.9034613666       -3.1351608319
 H         6.4888347511      -13.9298235235       -2.5394682751
 H         7.7053338544      -13.6855480075       -1.2925514505
 H         8.3507404303      -13.7268567461       -2.8734680061
 H         8.6703008630       -7.9865829089       -0.6588601336
 H         8.1831363812       -9.2865085970        0.3357152478
 H         6.0258746384       -7.7906245593       -1.0737627079
 H         6.8661549270       -6.8941084839        0.2162722961
 H         2.4885108579      -10.1798040295        1.2295012478
 H         3.5201387501      -10.7804918034       -0.1485181918
 H         0.9325035221       -9.2581711540       -0.7744652224
 H         0.8119163539      -10.8603026887       -0.4871889002
 H        -0.2245240459       -8.1768737764       -4.9976722693
 H         1.2565996822       -9.1022002705       -5.3480062728
 H         1.4196059699       -6.8947687750       -3.2813601768
 H         1.1553864476       -6.2374506703       -4.8849168794
 H         4.8642725541       -4.5965114808       -7.7218330441
 H         3.4852540393       -3.5559778229       -7.3648861559
 H         2.6931522589       -5.5433901246       -9.2777894616
 H         3.8366847025       -4.2164925215       -9.9291209557
 H         0.3775732050       -0.8045919423       -9.2826049919
 H        -1.1194153718       -1.6615324636       -9.5533833205
 H        -1.7930115017       -0.2917846405      -11.2417898128
 H        -0.2071723823        0.5870340415      -11.3059821347
 H        -3.9986912391        3.4160348432       -8.9558277721
 H        -4.3176792355        2.7974169063      -10.5922225546
 H        -3.9181660234        5.0933323072      -11.5415885762
 H        -3.4931654908        5.6740638597       -9.9390318179
 H        -8.3538148408        7.4940047719      -10.3527218429
 H        -8.2152012350        6.0486923280      -11.2151645147
 H        -8.7368958312        8.3416975900      -12.9528937730
 H       -10.0578688991        7.9672742299      -11.8933803987
 H        -6.8347563692        6.7724912579      -15.3697413739
 H        -7.4244832676        6.7939189527      -17.0247822412
 H        -5.5804782748        5.4556736748      -16.7879511583
 H        -6.8451980417        4.3274076328      -17.2321751206
 H        -4.6767103479        0.5517228900      -14.2738763756
 H        -5.9627555345       -0.4082232541      -14.8162042208
 H        -6.5923283562        0.6047428417      -12.0726053884
 H        -5.6955024259       -0.8332123339      -12.4287350582
 H       -11.8677783943       -0.3975769726      -13.5301819247
 H       -10.5109863413       -1.5541331506      -13.9822743936
 H       -10.8050307384       -0.4788458265      -15.9954890360
 H        -9.7799733469        0.7393217020      -15.2874944684
 H       -12.0350596174        2.7180228157      -17.7683112455
 H       -13.7821813215        2.9720246922      -17.6598704353
 H       -13.5817308391        1.9255549144      -20.1922105347
 H       -11.7259143207        1.7511997898      -19.7937441715
 H        -9.9904184584        5.2336459434      -23.0545979404
 H        -8.4945011538        4.5487423241      -22.5530150240
 H        -9.4299308072        5.5571702514      -21.3201356390
 H       -13.5664357908        2.2435802101      -22.2875835345
 H       -11.8377265888        1.4879162021      -22.4939725110
 H       -12.5544641238        2.6477407365      -23.7102327272
 H       -12.0659608319        5.9747713865      -22.2686704422
 H       -13.5966653382        4.9388682390      -22.4671033438
 H       -12.2091615411        4.8039540147      -23.5691873798
 H       -14.3636693937       -0.9120288775      -16.4178471872
 H       -13.8216023614       -1.0441859738      -14.7042526924
 H       -12.8401223678       -1.5090229516      -16.0689942041
 H       -14.3457537589        2.4991779652      -15.5505813720
 H       -14.7637063306        1.0910046794      -14.4330374348
 H       -15.2695678219        1.1013407413      -16.0294763384
 H        -9.7292468678       -2.8883550100      -12.4889419178
 H       -10.4101628335       -2.0725169976      -11.0208288797
 H        -8.7262221969       -2.7635492857      -11.1221618793
 H        -8.6131153618        1.0150046792      -10.7048704361
 H        -7.5884450546       -0.3565807152      -10.2205834835
 H        -9.3674066064       -0.3514873403       -9.8544278473
 H        -4.6482091235        1.3346080447      -16.8428660093
 H        -4.4002899179        3.1078119243      -17.2057656820
 H        -5.9377159977        2.3890025633      -17.4917571240
 H        -3.6129068059        2.0982583147      -14.2310344299
 H        -4.2724114099        3.6685591705      -13.8818562246
 H        -3.4425528510        3.4721716493      -15.3638804017
 H       -11.9619688936        7.1763795287      -14.9569183164
 H       -11.5635552071        5.5029551950      -14.9841782003
 H       -11.3066616563        6.4292069613      -16.4441191159
 H        -8.5192937457        8.6112348496      -15.5174146970
 H       -10.0000744780        8.9875233909      -14.7875641649
 H       -10.1311073111        8.3851258186      -16.3563117606
 H        -7.1513140815        7.6997322750       -9.1132690806
 H        -5.9741359723        9.0124664697       -9.4357712426
 H        -5.5078913027        7.5855414976       -8.4114729899
 H        -3.7541290888        7.1760428965      -11.6344339276
 H        -3.9224953772        8.3129937769      -10.3018260824
 H        -4.7982625231        8.4877825519      -11.8991668079
 H        -2.5711768917        2.0780548537       -7.5144770636
 H        -1.4392964343        3.4760865720       -7.3783958627
 H        -0.9796083645        1.7878815880       -7.1953348687
 H         0.5170279909        3.6311690054       -9.3527743843
 H         0.4886385148        2.3178316266      -10.4206040982
 H         0.6726794360        2.0581056922       -8.6942883546
 H         2.0367801673       -5.1011295721      -11.4677777864
 H         2.1746488081       -3.6149786855      -12.2359668354
 H         0.5937718503       -4.6000328485      -12.2447185917
 H         0.1442443325       -5.4227309295       -9.8437357733
 H        -1.0669846389       -4.3677544853      -10.5986725537
 H        -0.5568389639       -4.0945598409       -8.8106538325
 H         4.3470379963       -4.6505448673       -3.4969379725
 H         2.7770256655       -4.4954382988       -4.0343773613
 H         3.9751081014       -3.7241986555       -5.0344782458
 H         5.9274051146       -5.2681318128       -5.0532463768
 H         5.7834621334       -5.8942147981       -6.5749332984
 H         5.8580697829       -7.0178219049       -5.2829512196
 H         1.9753848505      -10.9135015592       -5.0901042367
 H         0.2770515491      -11.1070713734       -5.1750681027
 H         1.4042975713      -12.4371489295       -4.5198586014
 H        -0.8645175787      -10.6984931369       -2.0406564303
 H        -0.4143894832      -12.4405503471       -2.3063217206
 H        -1.1137565549      -11.3742546444       -3.5840063619
 H         4.3942847202       -7.7294502005        3.3263716082
 H         4.3090392061       -9.4696654518        2.8609090922
 H         2.8874688029       -8.5963855497        3.0256549021
 H         4.8776445006       -5.9399339163        1.7240628993
 H         3.2571672763       -5.9190253668        1.4651785788
 H         4.1324202051       -6.0813618697        0.0871135132
 H         9.3864290968      -12.3669553067       -0.7048567068
 H         8.1464778435      -11.4245792440        0.0964743071
 H         9.8362849664      -10.8158330628       -0.2774117675
 H        10.2885931456      -10.0984990185       -3.0180844276
 H         8.9829650748      -10.5641765954       -4.0100103984
 H        10.0156234480      -11.8465369898       -3.2836754352
 Na        4.8827676599       -9.5530871941       -2.9372004402
 Na       -9.7826110554        2.9536066837      -14.0682707218
