232

 C         7.3587300875      -13.5566329257       -2.2179155796
 C         7.2038395826      -12.0175900209       -2.3659556172
 O         6.2426392770      -11.6409519711       -2.9985777022
 C         8.3944014553      -11.0403128812       -1.8798867081
 C         7.7562552584       -9.6459873761       -1.7334723488
 O         7.1828292067       -9.1347792169       -2.6805087470
 C         7.9888335188       -8.7507373528       -0.5259748836
 C         6.6858145707       -7.9479588198       -0.2374801405
 C         5.8358637173       -8.6580559987        0.8772049962
 O         6.3120365416       -9.6352351702        1.3400586109
 C         4.3819160502       -8.1309689118        1.2431880428
 C         3.5723197539       -8.7559325535        0.0127102930
 O         3.5011457172       -8.1612964193       -1.0850842215
 C         2.8049792978      -10.0275237356        0.2193040940
 C         1.6831562133      -10.2225012383       -0.7486026770
 C         1.9653733608      -10.6094547665       -2.2004419289
 O         3.0257087854      -11.2451808413       -2.4549168301
 C         0.8278097226      -10.6439951391       -3.2954384838
 C         0.6008949017       -8.9813545817       -3.4919104579
 O         0.1098883797       -8.3059372720       -2.6281215011
 C         1.2083689600       -8.2158157344       -4.7750136937
 C         1.9388214923       -6.9376616418       -4.2204721118
 C         3.3772871266       -6.9830061472       -4.6539774334
 O         4.0721151112       -7.9235261204       -4.3211196526
 C         3.9485756376       -5.7525668438       -5.3961676588
 C         3.0387250951       -5.3141873129       -6.7810060435
 O         2.0366036173       -5.8775057864       -6.8601317186
 C         3.8145241969       -4.5738960312       -7.8515676788
 C         3.0561937487       -4.4947883533       -9.1877686839
 C         1.9500695195       -3.3801625291       -9.2544483708
 O         1.8221416030       -2.5580104783       -8.3969004875
 C         0.9674898660       -3.4497081762      -10.4405664218
 C         0.4860249509       -2.0410592213      -10.8740678315
 O         0.2831349124       -1.8788706585      -12.0616899027
 C        -0.0638082756       -1.0154308302       -9.8677937576
 C        -1.0304086475       -0.0235774138      -10.6594453195
 C        -1.8823728606        0.8021429049       -9.6147031860
 O        -2.9454751571        0.3155504396       -9.3015486473
 C        -1.5415408153        2.2965973578       -9.2636596053
 C        -2.3103489563        3.3638868660      -10.0555909890
 O        -1.6966474676        4.0563857525      -10.8546603493
 C        -3.8407682604        3.6585122859       -9.8316983247
 C        -4.1636909561        5.0303250066      -10.4772062997
 C        -5.4645330851        5.7521375833      -10.2093352154
 O        -6.4260054434        5.2097552536       -9.7573865652
 C        -5.6189601811        7.2622967738      -10.6455024901
 C        -6.7388386300        7.3897296292      -11.8584153478
 O        -6.5433203273        7.8172113745      -12.9892320851
 C        -8.1799945435        6.9382076816      -11.4772712169
 C        -9.2285720879        7.5155584204      -12.4505620112
 C        -9.6681356566        6.3466290517      -13.4183825420
 O        -9.7226508278        5.1760511599      -13.0517118251
 C        -9.9738940450        6.6869289366      -14.9878785394
 C        -8.9959946608        5.7284752839      -15.7458401861
 O        -9.2651997056        4.5825118954      -15.9724170421
 C        -7.5538163271        6.2475122619      -15.9413472246
 C        -6.5199810075        5.1101603004      -16.2779325098
 C        -6.2556714353        4.1149981312      -15.1334839655
 O        -6.4697170444        4.3915754564      -13.9705567696
 C        -5.6209153348        2.6686077646      -15.5154434408
 C        -6.3606989277        1.6689473392      -14.6519253094
 O        -7.5006950782        1.9227636325      -14.3313722962
 C        -5.7698915011        0.3047337932      -14.1459028059
 C        -6.4491836387       -0.1911583005      -12.8995322053
 C        -7.8071722067       -0.8278003631      -13.0204348749
 O        -8.1791898097       -1.3482080121      -14.0791936084
 C        -8.9635485976       -0.7586631184      -11.8350157747
 C        -9.8755330271        0.0310351860      -12.6987966445
 O        -9.8453377570        1.2540475749      -12.6361310123
 C       -10.8159823241       -0.6321171776      -13.8382589264
 C       -10.9608085720        0.3563562108      -15.0760868314
 C       -12.1593938872        1.1947411754      -15.1479181620
 O       -12.1146105630        2.4125434695      -15.0117884421
 C       -13.4070542161        0.6960099736      -15.8678727566
 C       -13.2511033122        1.0394095642      -17.5260578603
 O       -13.4224582882        0.1408716890      -18.3346412850
 C       -12.8985384936        2.3927190104      -18.0122872759
 C       -12.4176539704        2.2798296711      -19.4898365298
 C       -12.2105403277        3.6942014140      -20.1907667878
 O       -12.5211859543        4.7283071554      -19.6319672688
 C       -11.7067442785        3.7867264245      -21.7313241807
 C       -10.1936352562        3.6586475687      -21.7378335437
 O        -9.6268791346        2.6615866164      -21.2951895050
 C        -9.4169878102        4.8074659537      -22.4603267835
 C       -12.3572830382        2.6205207827      -22.5001682336
 C       -12.2659043822        5.1737362424      -22.2135035808
 C       -13.5166947640       -0.7467344259      -15.6279226195
 C       -14.6621323403        1.4625980891      -15.4040561244
 C        -9.4002557867       -2.3459993723      -11.7387515751
 C        -8.5125468274       -0.0642817013      -10.4837374724
 C        -5.5779156116        2.1376762914      -16.9466157327
 C        -4.2035934633        2.8808623132      -14.9249941365
 C       -11.5293557688        6.1978581886      -15.1495222268
 C        -9.5809680118        8.1852236285      -15.2614301220
 C        -6.2267358762        8.0738515840       -9.5127008460
 C        -4.2816156257        7.8698395069      -11.2225963511
 C        -1.9525229586        2.6936795632       -7.7782989263
 C        -0.0611875381        2.6004307876       -9.5654997432
 C         1.4614170906       -4.2517833849      -11.6580223723
 C        -0.2788224175       -4.1634005195       -9.8512229307
 C         3.7998552476       -4.4555492773       -4.5302088136
 C         5.3945177889       -6.1733454990       -5.8103854706
 C         1.3301886532      -11.3829837029       -4.5633262866
 C        -0.4974066777      -11.1505706545       -2.6929181021
 C         3.8264379276       -8.5053466349        2.6060312624
 C         4.2922277416       -6.6724509899        0.9817766897
 C         9.0940739861      -11.6703690164       -0.6617663234
 C         9.4638135653      -10.9703754482       -2.9758814833
 H         6.4048257377      -14.0431219738       -2.4059006441
 H         7.7004238979      -13.9615696897       -1.2909285611
 H         8.1169531502      -13.7195268881       -2.9118711571
 H         8.8790142986       -8.0960902409       -0.7094640791
 H         8.2235258146       -9.2135322132        0.4678950431
 H         6.0245590839       -7.9468964905       -1.1533007119
 H         6.9147245941       -6.9288977149        0.0571864219
 H         2.1924393028      -10.0669294717        1.1721048567
 H         3.5502025478      -10.8625905208        0.1875589663
 H         1.0459881531       -9.3457533863       -0.6305215014
 H         0.9688757912      -11.0875939189       -0.5341891469
 H         0.4162298590       -8.0272033379       -5.4384583383
 H         1.9348478591       -8.8906429610       -5.2322135713
 H         2.0559460144       -6.9792984581       -3.1136235202
 H         1.4728088472       -5.9465395626       -4.4685470272
 H         4.6920720905       -5.0499367659       -8.0479891816
 H         4.1211361657       -3.5049895026       -7.6744255823
 H         2.6456047454       -5.4910034372       -9.3462664323
 H         3.8361588320       -4.3522485919       -9.9569915231
 H         0.7873427783       -0.3438918750       -9.4511036966
 H        -0.5517123928       -1.3611798715       -8.9454841768
 H        -1.7111391035       -0.5780848931      -11.2222644408
 H        -0.4129497871        0.6314215532      -11.3263984353
 H        -4.0741966064        3.5353014861       -8.7139200297
 H        -4.3338363965        2.8701857393      -10.4000096407
 H        -3.9630109339        4.9962399396      -11.5523882548
 H        -3.4216147098        5.7655355582      -10.0966277490
 H        -8.2381802885        7.3661346125      -10.4072349315
 H        -8.1586233609        5.7701949461      -11.5101106312
 H        -8.8326354663        8.4580215687      -12.7864478570
 H       -10.2394119559        7.7043455208      -11.8889712830
 H        -7.3412214693        6.7814849299      -15.0088903590
 H        -7.4684940859        7.0588361753      -16.7296988383
 H        -5.5259980062        5.4686292478      -16.8204879674
 H        -7.0058381374        4.4280013117      -16.9371847385
 H        -4.7436809758        0.1805570613      -14.0579080215
 H        -5.9932025882       -0.3175039931      -15.0872805917
 H        -6.3790657266        0.6004217057      -12.0831081771
 H        -5.7552578651       -1.0788500132      -12.5857269261
 H       -11.7808279329       -0.8814865118      -13.3739005453
 H       -10.2361671226       -1.4621054490      -14.2258899254
 H       -10.8074628072       -0.2059832686      -16.0056868546
 H       -10.1270681853        1.0111988719      -14.9912418813
 H       -12.0088523231        2.7655852065      -17.4779055245
 H       -13.6253420934        3.1872993378      -17.9888208710
 H       -13.2918538510        1.8493126967      -19.9410999296
 H       -11.4882722824        1.7774625226      -19.6313378894
 H        -9.2387041255        4.4481987083      -23.4605276780
 H        -8.3785404627        4.7821481128      -22.0223749363
 H        -9.9086041758        5.7173844562      -22.3034563775
 H       -13.3824816848        2.6108487555      -22.2534774388
 H       -11.8501638781        1.7877530811      -22.2218320546
 H       -12.1921875924        2.7100531079      -23.5694769300
 H       -12.0644802518        5.7769684125      -21.3817338177
 H       -13.3284756414        5.1624024204      -22.2841956974
 H       -11.7605500376        5.6722466328      -23.0863129735
 H       -14.5456732327       -1.1669371020      -15.7989930652
 H       -13.0396017963       -1.1594562823      -14.7851783851
 H       -12.9306986400       -1.2643705113      -16.4558257188
 H       -14.4432158127        2.5058212178      -15.8206531689
 H       -14.8521869283        1.3959983181      -14.3472695405
 H       -15.5522019869        1.0738871490      -15.8085484767
 H        -9.0861015843       -2.8978176664      -12.5658312059
 H       -10.4485001076       -2.5456966403      -11.7620696404
 H        -8.8740233014       -2.9473812317      -11.0014785431
 H        -7.5479334188        0.3518534210      -10.6269352047
 H        -8.4840249465       -0.7909629007       -9.5965697623
 H        -9.1966335696        0.7904227645      -10.2275020459
 H        -4.9552447527        1.3454954818      -17.1206528114
 H        -5.3464103839        2.9259584222      -17.6069893023
 H        -6.6687259926        1.8808449477      -17.1724828136
 H        -3.5749212855        2.1379489321      -15.3373691967
 H        -4.1697218384        2.9189043198      -13.7949375717
 H        -3.8769396432        3.8646842662      -15.1580390706
 H       -12.0862878651        6.4905383572      -14.1894479497
 H       -11.6439540665        5.1623753380      -15.2953307908
 H       -11.9466627369        6.5703524661      -16.1129827153
 H        -8.6910958377        8.3913913656      -14.7137371923
 H       -10.2901377677        9.0227564841      -15.0843552771
 H        -9.2996982206        8.3217154129      -16.2849299267
 H        -6.8031894771        7.5106425120       -8.7858212104
 H        -6.8640924337        8.7999817564      -10.0258345779
 H        -5.4754795745        8.6406595477       -9.0219810517
 H        -3.9003448064        7.3456035681      -12.1238774968
 H        -3.5528135307        7.9738922012      -10.4181038790
 H        -4.6387988869        8.8514754028      -11.6083870791
 H        -2.9285875872        2.3295439146       -7.5195963409
 H        -1.7709074090        3.7923079128       -7.6586050767
 H        -1.3189318217        2.0921584845       -7.0799529298
 H         0.2559115021        3.5119512401       -8.9121716103
 H         0.0252260818        3.0897881184      -10.5364650475
 H         0.7391365304        1.7809670658       -9.5096828363
 H         1.6357782008       -5.3014695919      -11.3663305042
 H         2.5124391062       -4.0325438428      -11.9073981279
 H         0.7567493563       -4.2545989717      -12.3953677162
 H         0.0136333062       -5.0657414360       -9.4015092477
 H        -0.9485411295       -4.3855719747      -10.6268821954
 H        -0.6216750530       -3.4184868549       -9.0845890348
 H         3.9922202189       -4.6024450208       -3.5114514714
 H         2.7754854786       -4.0185191588       -4.4462872552
 H         4.4199075646       -3.6966334817       -4.8885741294
 H         6.0468860424       -5.3050592947       -6.1100932809
 H         5.2987453342       -6.8385362805       -6.7124157963
 H         6.0026552347       -6.7595917777       -5.0891875782
 H         2.4012378223      -11.0034215150       -4.7690514920
 H         0.6589884973      -11.2219171712       -5.4249684268
 H         1.4288406206      -12.3927490116       -4.4190782459
 H        -0.9146760001      -10.4728551733       -1.8826012474
 H        -0.2225213371      -12.0607251097       -2.2532164103
 H        -1.1351950420      -11.3214820216       -3.5616207890
 H         4.0620853839       -7.8179802778        3.4047085302
 H         4.1049408540       -9.5697417965        2.9156306612
 H         2.7299580587       -8.4213631751        2.5449763985
 H         4.5061687660       -6.0083942118        1.7995147035
 H         3.3130097651       -6.2881694668        0.7847524260
 H         4.8079983514       -6.3082342564        0.1664841102
 H         9.5819315251      -12.6778700330       -0.7655003193
 H         8.3274524476      -11.8517129352        0.0596287866
 H         9.8712410812      -11.0715730408       -0.2572785644
 H        10.1997192453      -10.2297836513       -2.7604703764
 H         9.0898393687      -10.6380433825       -3.9823133497
 H         9.9459537374      -11.9864139790       -3.0476423052
 Na        4.6887445488       -9.6879289112       -2.8428600425
 Na      -10.0714402733        3.2883194172      -14.0467122541
