232

 C         7.4546860704      -13.5701923098       -2.1846333472
 C         7.1627558577      -12.0664785050       -2.2910935623
 O         6.1787769976      -11.6459931985       -2.8664993648
 C         8.3606455250      -11.1227587448       -1.9041261978
 C         7.7730432256       -9.6723979372       -1.6769281364
 O         7.0241388291       -9.2092583641       -2.5527356287
 C         8.1176562276       -8.8476437089       -0.4884959509
 C         6.9817041831       -7.9737859617        0.0175294827
 C         5.9750231370       -8.7254862092        0.8311977545
 O         6.2659209129       -9.6904254707        1.5228303352
 C         4.5015105826       -8.1861213785        0.9550825849
 C         3.5790754069       -8.9048947470       -0.1718579785
 O         3.6387549774       -8.4424361808       -1.2935188860
 C         2.8506239470      -10.1864228110        0.1735128285
 C         1.5699968357      -10.3628931163       -0.6836342353
 C         1.9075176342      -10.7297840972       -2.1157689720
 O         3.0341136239      -11.0541865748       -2.3311528457
 C         0.8477217592      -10.5704132219       -3.2858836368
 C         0.6902799800       -8.8710904055       -3.4590035743
 O        -0.0065483843       -8.2919948269       -2.6543857113
 C         1.5949795264       -8.1866010866       -4.5868137510
 C         2.1961815845       -6.8400244980       -4.2545009082
 C         3.6549816381       -6.8897676821       -4.7654040024
 O         4.4243305424       -7.7875993288       -4.3796285126
 C         4.1864201456       -5.7067537011       -5.5454256623
 C         3.1932578391       -5.3404284477       -6.7911457626
 O         2.1000213901       -5.9893438427       -6.9823975986
 C         3.8115856520       -4.4832025140       -7.9065453829
 C         2.9158031162       -4.5134850916       -9.2302037899
 C         1.8893968296       -3.4125514863       -9.1834525311
 O         1.9498599270       -2.5551580908       -8.2911748468
 C         0.8209803211       -3.4254955808      -10.3614465561
 C         0.3896628721       -2.0557755715      -10.9155327089
 O         0.0922255497       -1.9274374146      -12.0712419410
 C         0.0301688853       -0.9318415574       -9.9054254348
 C        -1.1145526094       -0.0493195510      -10.4900796314
 C        -2.0937241361        0.8323206354       -9.6605660617
 O        -3.1800090109        0.4178196497       -9.3622262696
 C        -1.6574412513        2.3024057478       -9.2073188419
 C        -2.4297762193        3.5183101098      -10.0501762898
 O        -1.7810955021        4.0372259388      -10.9258212513
 C        -3.8922373782        3.9367046963       -9.8117224121
 C        -4.0827174911        5.2506392838      -10.5729543839
 C        -5.4464839389        5.8475755038      -10.3513671962
 O        -6.3606365547        5.2671751875       -9.7773024207
 C        -5.5529611664        7.3427594071      -10.7829702449
 C        -6.6861514537        7.2785314056      -11.8528933304
 O        -6.4683946298        7.4578478696      -13.0545828865
 C        -8.1079359704        6.8630030908      -11.4435187423
 C        -9.3063092021        7.3277740636      -12.3079984165
 C        -9.6891866502        6.2615314306      -13.3110988215
 O        -9.9016433364        5.1390372876      -12.8690536416
 C       -10.0118133822        6.5486983464      -14.8625919972
 C        -8.9868595000        5.6380932567      -15.5970024729
 O        -9.3921606740        4.5425951023      -16.0375049377
 C        -7.5562191556        6.1447920346      -15.7954781564
 C        -6.6654283647        5.0544693768      -16.3660387434
 C        -6.2398674075        4.0780123696      -15.1478378177
 O        -6.5515329543        4.4517027850      -14.0454516315
 C        -5.7819782265        2.6471171636      -15.3763206498
 C        -6.5556200349        1.5868821508      -14.5157161991
 O        -7.7398563336        1.7715407282      -14.2987155377
 C        -5.8558208752        0.3577847488      -14.1744660176
 C        -6.3651864233       -0.2132516167      -12.7658005477
 C        -7.7237273310       -0.8465822130      -13.1026256274
 O        -8.0014430424       -1.2649276648      -14.1932393418
 C        -8.8892648772       -0.7766596127      -12.0482599138
 C        -9.8433377819        0.2618661796      -12.8980133490
 O        -9.7114146056        1.4281804758      -12.6067938076
 C       -10.9473547982       -0.3484409653      -13.7814829498
 C       -11.0574812233        0.3466106566      -15.1282725086
 C       -12.3366567141        1.2237888472      -15.2033762637
 O       -12.1268882031        2.3906067928      -14.8580088121
 C       -13.5037947262        0.8325548181      -15.8903084564
 C       -13.2690621306        0.9608809857      -17.5561403167
 O       -13.4690530445        0.0979239407      -18.3443516417
 C       -12.7276437830        2.3093828961      -17.9658310251
 C       -12.0591636991        2.3285682553      -19.3785013111
 C       -12.1902711340        3.7819870703      -20.0072547836
 O       -12.5067783212        4.7307568046      -19.3380160779
 C       -11.6812582463        3.9784319261      -21.5928098157
 C       -10.1140155811        3.7269171894      -21.6261695806
 O        -9.6885589012        2.7732655770      -21.0364018099
 C        -9.1250978116        4.5446120417      -22.4571416552
 C       -12.1920892539        2.7838506150      -22.5014484777
 C       -12.3064480371        5.2788329702      -22.1552445879
 C       -13.7649939283       -0.6639678657      -15.8570950957
 C       -14.7632116861        1.5226528923      -15.4607475117
 C        -9.4816395393       -2.1380831415      -11.7019354475
 C        -8.4814017802       -0.1991689332      -10.6979616655
 C        -6.1475148952        2.2935540909      -16.8647547898
 C        -4.2382635987        2.5637175732      -15.3057831888
 C       -11.4601506355        6.1461825777      -15.1360040140
 C        -9.9545529646        8.0312369598      -15.3385238943
 C        -6.0275261337        8.2229493449       -9.5044249960
 C        -4.3243946612        8.0405028843      -11.4048633573
 C        -2.0317367515        2.3069425286       -7.7374816370
 C        -0.1802247571        2.4747576311       -9.3199466175
 C         1.3928431950       -4.2851550515      -11.5839286928
 C        -0.4334435265       -4.1710642521       -9.8427135655
 C         4.1088837156       -4.4331119924       -4.7213243447
 C         5.6538345005       -5.8666775593       -5.8078640611
 C         1.3234857049      -11.1800794125       -4.6197357874
 C        -0.6266025591      -10.9969543766       -2.7768439083
 C         4.0748935140       -8.6102811955        2.4242370273
 C         4.4734126056       -6.6373736228        0.9171903252
 C         8.9502885862      -11.6219866704       -0.5661384795
 C         9.3477986082      -11.1273712462       -3.0881038452
 H         6.5967686004      -14.0538117600       -2.7088074287
 H         7.3526897313      -13.9688373976       -1.1530084561
 H         8.4829323663      -13.8356412203       -2.5955313418
 H         8.7961500721       -8.1541211258       -0.9311115165
 H         8.6571528848       -9.2866906334        0.3070377875
 H         6.5738895015       -7.4811658331       -0.8308587830
 H         7.4148719579       -7.2292228370        0.7127750048
 H         2.4370167476      -10.3056550406        1.1374352009
 H         3.4897255733      -11.0505038382        0.0046625853
 H         0.9245558446       -9.4307240497       -0.6723539396
 H         0.9320346032      -11.1597162668       -0.2945375564
 H         0.9526078239       -8.0783256278       -5.5247847558
 H         2.3791429348       -8.9459999950       -4.7035003873
 H         2.3577947530       -6.5303998867       -3.2348090785
 H         1.6165176400       -6.0531850870       -4.6936953048
 H         4.7853818192       -4.9489390264       -8.3045502107
 H         4.1072053712       -3.4992544555       -7.6460896631
 H         2.6040205868       -5.5756122633       -9.3192927967
 H         3.5842592343       -4.4480818149      -10.1268426393
 H         0.8253973044       -0.2930362649       -9.7959033167
 H        -0.1619494997       -1.1772801391       -8.8577418836
 H        -1.6005533163       -0.6643326496      -11.3438783592
 H        -0.6224616280        0.8139506276      -10.9591590397
 H        -4.0837531741        4.0158676913       -8.8055601921
 H        -4.4703352031        3.0716398778      -10.2299390900
 H        -3.9911813645        5.1049986197      -11.6602385901
 H        -3.3069892359        5.9499096843      -10.3169044684
 H        -8.2918835626        6.8747338084      -10.3568477925
 H        -8.0164874058        5.8450125425      -11.7911994820
 H        -9.0350511612        8.2434755400      -12.8799799694
 H       -10.1389437953        7.5367318238      -11.6902564890
 H        -7.2453605815        6.7112182836      -14.8806809729
 H        -7.5710501395        6.9196132287      -16.5493093846
 H        -5.7992143468        5.3823071972      -16.8013184175
 H        -7.2568388978        4.5064391064      -17.1922086469
 H        -4.7269300778        0.5468617718      -14.1510744112
 H        -5.9450215122       -0.2015034506      -15.0648412133
 H        -6.4630782810        0.5750127770      -12.0798968444
 H        -5.6715405897       -0.8881728899      -12.3825668129
 H       -11.8131023630        0.0016485506      -13.2295150094
 H       -10.8086978424       -1.4340450672      -13.8267786961
 H       -11.0401199372       -0.3977513513      -15.9263969258
 H       -10.1983896520        1.0666130031      -15.3392027796
 H       -12.0996219158        2.8622930351      -17.2814723262
 H       -13.6081404599        2.9336850462      -18.1435564897
 H       -12.6535710633        1.6231835379      -19.9415148289
 H       -10.9440245513        2.1567077844      -19.3427521266
 H        -9.0320512723        3.9214050684      -23.3691958274
 H        -8.1965166798        4.4410490701      -22.0092728631
 H        -9.4631558730        5.6083937473      -22.6058292633
 H       -13.2937187428        2.9020217108      -22.5752089856
 H       -11.8443796090        1.8400060059      -21.9572634807
 H       -11.6342256176        2.7740513593      -23.4313540195
 H       -11.7658484217        6.1977285961      -21.9291259566
 H       -13.2448983717        5.3606667308      -21.6037751280
 H       -12.5112357624        5.2123120588      -23.1768466235
 H       -14.5908101359       -0.8655800623      -16.4733511801
 H       -13.9123243631       -1.0739110397      -14.8161253304
 H       -12.9829390297       -1.2814614021      -16.1677549366
 H       -14.6729598914        2.5653822307      -15.4692894129
 H       -15.1057137533        1.1855403148      -14.4578747572
 H       -15.5657037114        1.1190986304      -16.1312469762
 H        -9.7385453974       -2.8475425404      -12.5420489555
 H       -10.4568631737       -2.1245532740      -11.2218010516
 H        -8.7789651405       -2.7984228971      -11.1845173608
 H        -7.6794835941       -0.8725368072      -10.2565469270
 H        -9.2703060407        0.0011784808      -10.0366604631
 H        -7.9864828373        0.7505563284      -10.8366333568
 H        -5.7139588177        1.2429493259      -17.0430111849
 H        -5.4280288730        2.9494184587      -17.4993563938
 H        -7.1506932492        2.3887493823      -17.1512100151
 H        -3.7941073474        1.8180271076      -16.0273915898
 H        -3.9303309001        2.4544400352      -14.3126560931
 H        -3.8750298684        3.6041356301      -15.4935987052
 H       -12.0673212744        6.3688668343      -14.3217585308
 H       -11.5245579652        5.0502059065      -15.4298614688
 H       -11.8286595261        6.5517665927      -16.0448733376
 H        -8.9929712535        8.5963346436      -15.4735093424
 H       -10.5522679043        8.6095635922      -14.6417162964
 H       -10.4730268195        8.1770952992      -16.3206765276
 H        -6.3973436836        7.5728080253       -8.6748183127
 H        -6.8194575452        8.8886060350       -9.8026789542
 H        -5.1818827652        8.7843416053       -9.0925629608
 H        -4.3243676778        7.6837493030      -12.4285652271
 H        -3.3997550591        7.8159337808      -10.8979912295
 H        -4.5378442622        9.1125582131      -11.4274495378
 H        -3.0599178531        1.8540871642       -7.5679439268
 H        -2.0058934483        3.3700640316       -7.5516133679
 H        -1.3693980763        1.8047714740       -7.0798400811
 H         0.0696458350        3.3982558230       -8.9524134932
 H         0.2752926878        2.3802318463      -10.3042123455
 H         0.2196502755        1.7242082034       -8.7528252989
 H         1.4631638684       -5.3474946960      -11.4925202462
 H         2.4339994045       -4.0555668777      -11.7146322752
 H         0.7929958464       -3.9874860769      -12.5134456808
 H        -0.0897136974       -5.1713128576       -9.5259726422
 H        -1.1826307657       -4.3692759005      -10.6615293323
 H        -0.7670065852       -3.5943422713       -9.0706398541
 H         4.5277558419       -4.5214130320       -3.6934029442
 H         3.1081836037       -4.0941002246       -4.5899276984
 H         4.6356664771       -3.5542138965       -5.1600083633
 H         6.1407261301       -5.3279212695       -6.5670738350
 H         5.8870359980       -6.9076588365       -5.8881817643
 H         6.1659367310       -5.5285706230       -4.9062804017
 H         2.2862167087      -10.8931635906       -4.9047941364
 H         0.5308383943      -11.0793370787       -5.3339588951
 H         1.3634596923      -12.3226071843       -4.4768439650
 H        -0.8902339471      -10.4137962343       -1.9429771159
 H        -0.5703846102      -12.0606962784       -2.4249028306
 H        -1.2560875176      -10.8336566971       -3.6523979176
 H         4.8000483667       -8.2545722726        3.2197126250
 H         4.1549669282       -9.6976726415        2.6157785408
 H         3.1090660771       -8.1817581369        2.7360676122
 H         5.1976064068       -6.0505613478        1.4839543650
 H         3.5544246862       -6.2819882011        1.3979838479
 H         4.5247809629       -6.0906801032       -0.0657379040
 H         9.3971121257      -12.5775228850       -0.7824161546
 H         8.3401677031      -11.8555183669        0.3200632541
 H         9.8423373837      -10.9916949676       -0.2719978345
 H        10.2932223885      -10.6384004070       -2.7519702228
 H         9.0318481781      -10.5637289569       -3.9177503912
 H         9.5701730261      -12.1072706806       -3.4732466424
 Na        4.7138187337       -9.6421222147       -2.8676692234
 Na      -10.0752375642        3.2116173434      -14.1965780708
