232

 C         7.4341702731      -13.5953518168       -2.1716786994
 C         7.1321982833      -12.1068447774       -2.3461278254
 O         6.0374097585      -11.7161072493       -2.7299719544
 C         8.3259975296      -11.1351189805       -1.9122948952
 C         7.6836057374       -9.6038216760       -1.6921934271
 O         6.9000586394       -9.1439198659       -2.4663285415
 C         8.1962229648       -8.8516717272       -0.4734705964
 C         7.0924676861       -7.8921876216        0.0997378379
 C         6.0112998614       -8.8252503646        0.8776603156
 O         6.3278199051       -9.8001664288        1.4653604958
 C         4.5143518500       -8.2462968418        0.9830060121
 C         3.6613136336       -8.9671187685       -0.1656768939
 O         3.7078787196       -8.4601367605       -1.3316199550
 C         2.8411774353      -10.1450949850        0.1764536381
 C         1.5159169000      -10.3313677195       -0.6445794593
 C         1.8971550163      -10.6817405420       -2.0637847537
 O         3.0147663013      -11.0605202082       -2.3870849463
 C         0.7649625778      -10.4594176485       -3.2875712278
 C         0.7865561596       -8.9603011271       -3.3010603236
 O        -0.0273824314       -8.2962308305       -2.6709578377
 C         1.6959435768       -8.3070891970       -4.4797716671
 C         2.3381218220       -6.9186022050       -4.2658056018
 C         3.8212613874       -6.8555829523       -4.7060231205
 O         4.6597460331       -7.7267264810       -4.4558906085
 C         4.3413051019       -5.5825922237       -5.5411628462
 C         3.3627098171       -5.4941609221       -6.9179169978
 O         2.2944655157       -5.9931302723       -6.9356809739
 C         3.8392319343       -4.5083354926       -7.9528231166
 C         2.8901060509       -4.5456025438       -9.2024116416
 C         1.8973551945       -3.3769716515       -9.2267842826
 O         1.8713454160       -2.5253760399       -8.3656261302
 C         0.7936150244       -3.4540484596      -10.3110538900
 C         0.2299921181       -2.0632099911      -10.8416034001
 O         0.1274778937       -1.9659274312      -12.0399529687
 C        -0.1312171274       -0.8337271327       -9.9393661113
 C        -1.2512756657        0.0342058252      -10.6890103772
 C        -2.1401542270        0.8812006133       -9.7240033853
 O        -3.2365154096        0.4412028990       -9.4611649619
 C        -1.6733578152        2.2952437823       -9.0865215777
 C        -2.3575048461        3.3575950967      -10.0632040833
 O        -1.6732671927        3.8556473481      -10.9562996466
 C        -3.7489272656        3.9193812786       -9.8131268185
 C        -4.0053562731        5.2041996651      -10.5736187537
 C        -5.3590839413        5.9966565763      -10.3237638148
 O        -6.2812625108        5.4190215251       -9.8309753949
 C        -5.5874278600        7.4465650732      -10.8585184632
 C        -6.8082130242        7.2514278626      -11.8583368780
 O        -6.5283174093        7.3357903292      -13.0936686506
 C        -8.1802629355        6.7957259558      -11.3282106171
 C        -9.1969031300        7.3341824083      -12.3711216985
 C        -9.8440185110        6.2462531159      -13.2683948001
 O        -9.9589655912        5.0868632823      -12.8567150209
 C       -10.1540090383        6.4932033014      -14.8136490712
 C        -9.0991204889        5.6909262940      -15.6718798320
 O        -9.2990076126        4.5405499359      -15.9450629209
 C        -7.6407995570        6.1941447794      -15.9201419956
 C        -6.6792073333        5.0639961248      -16.2968394903
 C        -6.4403390537        4.0924317980      -15.0820579891
 O        -6.4786273835        4.4259542469      -13.9105690830
 C        -5.9156111189        2.6707843534      -15.5727488097
 C        -6.6253790151        1.6607272066      -14.5990810393
 O        -7.7993551820        1.7451390467      -14.3001857067
 C        -5.7505412296        0.4278358542      -14.0239280024
 C        -6.3602334606       -0.2899800687      -12.8367516854
 C        -7.7211872597       -0.8147594246      -13.1599807154
 O        -7.9352533305       -1.4495190097      -14.1962794870
 C        -8.8979727534       -0.6833260293      -12.0517318340
 C        -9.8910644894        0.2942087399      -12.7273124160
 O        -9.7566742904        1.4821479759      -12.5887168293
 C       -11.0376383849       -0.2293974572      -13.6572273134
 C       -10.9834571045        0.3626574819      -15.1739301777
 C       -12.2459229056        1.2780012890      -15.3048250195
 O       -12.2305709993        2.3616129295      -14.7487024780
 C       -13.6171368293        0.7297513134      -16.0237865110
 C       -13.2692509403        0.9809486221      -17.5259701435
 O       -13.5033200030        0.0519190539      -18.2749154707
 C       -12.7288168655        2.4049180336      -17.9570894932
 C       -11.9641044530        2.4220452516      -19.3256625553
 C       -12.0552941876        3.7655129116      -19.9962015801
 O       -12.4609672532        4.7496150302      -19.3843947798
 C       -11.7123606987        3.9307377273      -21.5009492240
 C       -10.1480283429        3.7069176646      -21.4887780637
 O        -9.6719046014        2.8058562754      -20.7926626875
 C        -9.2347581475        4.5858989815      -22.4731964315
 C       -12.1989735280        2.8336626736      -22.4325380598
 C       -12.0621271347        5.3422054223      -22.0885163092
 C       -13.8883643195       -0.8597403555      -15.9007689477
 C       -14.7999195609        1.7476815520      -15.6344585868
 C        -9.6044143552       -2.0680318037      -11.9601688529
 C        -8.3995062075       -0.0062094209      -10.7484458536
 C        -6.3349928475        2.1936510904      -17.0358743407
 C        -4.3481756843        2.5189228628      -15.4453949564
 C       -11.5641249078        5.9165881049      -15.0935920010
 C        -9.9000267144        8.0397702971      -15.1592108498
 C        -6.0148203083        8.2263173166       -9.5674513253
 C        -4.3259947832        8.0998317370      -11.4650980346
 C        -2.1925241065        2.2763178539       -7.5861834369
 C        -0.1659556091        2.5829180959       -9.2032082252
 C         1.2182688849       -4.1811833813      -11.5838750599
 C        -0.4716447184       -4.2269201284       -9.8042259204
 C         4.0988033136       -4.2545393933       -4.7890518600
 C         5.8879295416       -5.8690762385       -5.7892960574
 C         1.2004807372      -11.1267990486       -4.6435054595
 C        -0.6006238086      -10.9209721854       -2.8420401164
 C         4.1435875809       -8.5408263270        2.4710449175
 C         4.4383799710       -6.7945457036        0.8090240327
 C         9.0218479915      -11.6844479688       -0.6210794014
 C         9.3058178506      -11.1467431974       -3.0080743653
 H         6.8067287249      -14.1264142824       -2.9717316469
 H         7.0567333723      -14.0414209636       -1.2479083831
 H         8.4856579392      -13.7794604973       -2.3011634664
 H         9.1657586773       -8.3044507182       -0.7292821554
 H         8.4824463857       -9.5473047368        0.3855793061
 H         6.7540285016       -7.2615225571       -0.7204777447
 H         7.5273503601       -7.2894013322        0.8867996477
 H         2.5094617297      -10.2098347310        1.1968558842
 H         3.3193084796      -11.1200305918        0.0151969000
 H         0.8110563152       -9.5354969496       -0.7355475719
 H         1.0213155200      -11.2033901517       -0.2437646875
 H         0.9461724323       -8.2568434996       -5.2843245458
 H         2.4771208721       -9.0764636224       -4.6697844546
 H         2.3107866805       -6.5127379494       -3.2597410717
 H         1.8118395775       -6.1195277050       -4.8601279581
 H         4.8191779449       -4.5174772179       -8.3332065437
 H         3.7449010363       -3.4865188191       -7.4638520543
 H         2.5596782042       -5.5579596403       -9.3183381407
 H         3.5836363432       -4.5038968415      -10.1133439660
 H         0.7505862959       -0.2822441497       -9.5604220640
 H        -0.5984510348       -1.0904971823       -8.9560061767
 H        -1.8581446170       -0.7675781153      -10.9889815902
 H        -1.0106035360        0.6179676111      -11.5906701438
 H        -3.8356877427        4.0913357979       -8.7742005822
 H        -4.3853891050        3.0518498586      -10.0734839963
 H        -3.9822950123        5.0392835475      -11.6494649980
 H        -3.1389363709        5.8588916338      -10.3607633564
 H        -8.3892897289        7.3384038352      -10.3988706321
 H        -8.2885277528        5.7439265546      -11.2417181410
 H        -8.7940446766        8.0277534497      -12.9904520173
 H        -9.9223204069        7.8141087217      -11.7252766822
 H        -7.3851715454        6.6950140497      -14.9860293163
 H        -7.5246985947        7.0160647067      -16.6272786665
 H        -5.7044645083        5.3041101302      -16.6504806816
 H        -7.1095445029        4.4858407003      -17.0763057121
 H        -4.6944138907        0.6127484925      -13.8200861444
 H        -5.6920455331       -0.2484458283      -14.9048874294
 H        -6.4319425054        0.3517188988      -12.0219597200
 H        -5.6366158208       -1.0814781322      -12.5998288430
 H       -11.9440538426        0.1439398891      -13.1863118696
 H       -10.9664606230       -1.3046698896      -13.7785480787
 H       -11.1787326678       -0.4803379203      -15.8007898587
 H       -10.0204412914        0.8390178566      -15.5219303882
 H       -11.8756018936        2.7639089460      -17.2817371042
 H       -13.5136100438        3.1597275799      -17.9150883268
 H       -12.4375599933        1.6937623652      -19.9858378883
 H       -10.9325183876        2.1387859948      -18.9278523898
 H        -9.2672514371        3.9125317271      -23.3598061748
 H        -8.2046472201        4.5604869136      -22.1586690660
 H        -9.6061316816        5.5707581825      -22.6616597406
 H       -13.3239498941        2.9207233562      -22.3197080042
 H       -11.7808599585        1.8589820302      -22.1710689078
 H       -11.8272839236        3.0768266353      -23.4806308956
 H       -11.3071242741        6.0698244448      -21.9355823306
 H       -12.9657763234        5.7450954328      -21.5930355311
 H       -12.2883941068        5.2103454529      -23.2014799917
 H       -14.4612848162       -1.3579488910      -16.6733095165
 H       -14.2553775758       -1.0920599232      -14.9271643092
 H       -12.9780133275       -1.4083548056      -15.8020187723
 H       -14.3089559163        2.7480346062      -15.4731953994
 H       -15.1499538403        1.4766780500      -14.6420794604
 H       -15.6561897056        1.7605484998      -16.2766682354
 H       -10.0801741395       -2.3589914693      -12.8977938598
 H       -10.4747936073       -2.1973668973      -11.3144466057
 H        -8.9938795618       -3.0227895730      -11.8521443266
 H        -8.2594074268       -0.7869042657      -10.0111585225
 H        -9.1649877045        0.6814782647      -10.4139919757
 H        -7.4957696572        0.5894764518      -10.6697329344
 H        -6.2420585910        1.1389416069      -16.9821186534
 H        -5.5513565673        2.4865104022      -17.7841974703
 H        -7.3633839712        2.4476186770      -17.3771334470
 H        -4.0338430007        1.4933999287      -15.6891058134
 H        -4.1522300436        2.8111763398      -14.4100096764
 H        -3.8079968710        3.2419583548      -16.0362149232
 H       -12.2507943700        6.4844936197      -14.4765887999
 H       -11.6263881129        4.8624415376      -14.9308600544
 H       -11.8924134272        6.0062846975      -16.1323793459
 H        -8.8954189944        8.4195013145      -15.0882026708
 H       -10.5292260414        8.6958379951      -14.5169997233
 H       -10.1741551216        8.2741151025      -16.1740825899
 H        -6.6207008562        7.5010527468       -8.9145695176
 H        -6.5941961137        9.1676796259       -9.7075958596
 H        -5.1336340937        8.3735159089       -8.9973585481
 H        -4.1515669294        7.3993084622      -12.2768561879
 H        -3.5465184715        8.0895739142      -10.7826007942
 H        -4.4959393579        9.1178379067      -11.8566293298
 H        -3.2431514814        1.9380655666       -7.5490748046
 H        -1.9764924462        3.1986532257       -7.0473951677
 H        -1.6496404771        1.5128072616       -7.1308903277
 H        -0.1041301875        3.6583813020       -9.0153051272
 H         0.2732166873        2.3248084826      -10.1296239117
 H         0.3730530070        2.0132236923       -8.4919438110
 H         1.5528549649       -5.2006555543      -11.4770311335
 H         2.1566030490       -3.6835549755      -12.0092796980
 H         0.4288500909       -4.0708223203      -12.2841641135
 H        -0.2604008796       -5.2840908585       -9.6258731445
 H        -1.2137004541       -4.2055447242      -10.6463885099
 H        -0.8136974649       -3.6325549140       -8.9282893033
 H         4.7236154145       -4.1473859999       -3.9045290246
 H         3.0021238269       -4.1242959166       -4.4500204602
 H         4.3112487813       -3.3223379555       -5.3310364685
 H         6.3889279440       -5.1948432169       -6.4585330001
 H         5.9950879686       -6.8681029666       -6.1340506253
 H         6.4391085557       -5.7699921200       -4.9019390679
 H         2.2691132519      -10.8299439443       -4.8333833391
 H         0.4886665121      -10.9314238617       -5.4295410494
 H         1.2181011086      -12.1779617357       -4.5769179762
 H        -0.8755980262      -10.3596866190       -1.9488930995
 H        -0.5980710791      -11.9196303032       -2.5759320986
 H        -1.2206473806      -10.6400585340       -3.7013284929
 H         4.8000149779       -8.1023635271        3.1642378164
 H         4.4201145313       -9.6143238809        2.6271640747
 H         3.1807846755       -8.2558423574        2.7623033891
 H         5.3545612671       -6.1904840828        1.0633643339
 H         3.6840184305       -6.2737967352        1.4503234040
 H         4.3171648398       -6.4346063280       -0.2010867921
 H         9.2913226558      -12.7625848685       -0.7305851030
 H         8.5110844299      -11.6807736564        0.3333332121
 H         9.9618364157      -11.1407449434       -0.4813348421
 H        10.2740123662      -10.7587788663       -2.7205434127
 H         9.0612610367      -10.7519907198       -3.9763567195
 H         9.4208907330      -12.2165666248       -3.2247343221
 Na        4.8680369992       -9.5818822149       -3.0373398160
 Na       -9.9613205153        3.0311842423      -14.2547854731
