232

 C         7.1997748023      -13.5595517927       -2.2737130627
 C         6.9978819746      -12.0354543615       -2.1792041196
 O         5.9062461375      -11.5990678883       -2.4760108757
 C         8.1749951737      -11.1552101680       -1.7497817270
 C         7.7469721208       -9.6753557541       -1.5157145916
 O         6.9880988827       -9.1224820202       -2.3189727117
 C         8.3282780122       -8.9003120875       -0.3114288418
 C         7.1797260911       -8.0246472394        0.2571760697
 C         6.0395632576       -8.9267922928        0.7998920338
 O         6.2598811184      -10.0829872016        1.0188753411
 C         4.6147641374       -8.2734921758        1.0134971633
 C         3.8177918219       -9.1023130281       -0.1629299621
 O         4.0267930931       -8.7904274989       -1.3316972492
 C         2.8478405384      -10.2283644969        0.1824436840
 C         1.6134740494      -10.2976147430       -0.7075223071
 C         1.9411503303      -10.6929618581       -2.1614090970
 O         3.0132159405      -10.9713102757       -2.6557599343
 C         0.8790016131      -10.3084248143       -3.1637997401
 C         1.0849460469       -8.7821683792       -3.4704152641
 O         0.3996878682       -7.9521130536       -2.8403393870
 C         2.3280346075       -8.3435656461       -4.4540471454
 C         2.8709083531       -6.9978459831       -3.9832842782
 C         4.2185588070       -6.7250063212       -4.6846986877
 O         5.1157039652       -7.5682277379       -4.7625163874
 C         4.4033646161       -5.4225743821       -5.5012168442
 C         3.5563083002       -5.5780609629       -6.9631230156
 O         2.7611313092       -6.4801692560       -7.2034302583
 C         3.7082010383       -4.3836176052       -8.0003130001
 C         2.6926108235       -4.4595898075       -9.1858358901
 C         1.7868873499       -3.1723238105       -9.3449110593
 O         1.7910990280       -2.2918573150       -8.5049146678
 C         0.6136931806       -3.3976608070      -10.3950875525
 C         0.0458749682       -2.0596778394      -10.8974914590
 O         0.1858515606       -1.7841587147      -12.0593401352
 C        -0.7291107822       -1.1608022567       -9.8652012788
 C        -1.2064859525        0.1545281655      -10.4712060316
 C        -2.2502570091        0.9026648097       -9.6623457144
 O        -3.4303323562        0.6533073738       -9.7319786236
 C        -1.8059424788        2.2582336473       -8.9965848712
 C        -2.2287102614        3.4015532609      -10.1267392640
 O        -1.7145351454        3.3875767001      -11.2502815844
 C        -3.4090827363        4.1833994689       -9.6952888101
 C        -3.7194776035        5.3649566978      -10.6529408042
 C        -5.1716584217        5.9125879867      -10.2869662509
 O        -5.8987653766        5.3005142758       -9.5592038609
 C        -5.5992101201        7.3237366965      -10.8369166510
 C        -6.8760595337        7.0728951436      -11.8883615560
 O        -6.6949844399        7.2635913588      -13.1258712298
 C        -8.2208229766        6.8412174632      -11.3182025405
 C        -9.4238418113        7.2264524383      -12.2045003398
 C        -9.8400537170        6.0601667196      -13.1979782027
 O        -9.7408380885        4.9170552937      -12.8188026028
 C       -10.2427830752        6.3397485512      -14.7784964296
 C        -9.1014414191        5.5874477086      -15.5827416566
 O        -9.2241299120        4.3817259409      -15.7714270398
 C        -7.7190673373        6.1962113461      -15.7955710399
 C        -6.6094785875        5.2128573705      -16.3547885536
 C        -6.5033169121        4.0472380464      -15.3267287861
 O        -6.6039345782        4.4168209009      -14.1712914597
 C        -6.2569964648        2.5599376874      -15.8122402715
 C        -6.6427107676        1.5344870937      -14.6915003253
 O        -7.8250052118        1.4816522287      -14.4400839972
 C        -5.6440306723        0.5988209768      -14.0433931920
 C        -6.3546526708       -0.2744626260      -12.8863246505
 C        -7.6976177380       -0.8497408086      -13.1117978302
 O        -7.9477736618       -1.4951413972      -14.0997408659
 C        -8.9910336004       -0.6428016158      -11.9846928271
 C       -10.0659981453        0.2371849562      -12.6569436915
 O        -9.9749185250        1.4148008536      -12.4209484842
 C       -11.2866920737       -0.3305768081      -13.5670934068
 C       -11.3127724964        0.2068315245      -15.0201648329
 C       -12.4097866203        1.2627985897      -15.2136515075
 O       -12.1394278498        2.4237130103      -14.9120097765
 C       -13.6441450444        0.9512106094      -16.0347880292
 C       -13.3102740003        1.0687547341      -17.5983872302
 O       -13.2811790638        0.1109661615      -18.3482855978
 C       -12.8386514602        2.4465756623      -18.0391343806
 C       -12.1021524788        2.4251278819      -19.3918410750
 C       -11.9424702905        3.8552817565      -19.8170905429
 O       -12.4739542327        4.7949170324      -19.2285675539
 C       -11.4236678597        4.1130302142      -21.3408505065
 C        -9.9092786567        3.7571924443      -21.3879744584
 O        -9.3654969829        3.1799641140      -20.4477657902
 C        -9.0502742515        4.2225469811      -22.6090712382
 C       -12.1892882858        3.0726770896      -22.1569792467
 C       -11.8312283606        5.4948276174      -21.9201588024
 C       -14.0789577462       -0.4380508047      -15.7405800754
 C       -14.8147372756        1.9496632528      -15.8978673643
 C        -9.6047048715       -2.0774934390      -11.8816261436
 C        -8.5061022898       -0.0277336284      -10.6534361904
 C        -6.9987487108        2.2158859191      -17.0644012907
 C        -4.6998700343        2.7028273323      -16.1853883023
 C       -11.7091703060        5.6707554213      -15.0403142886
 C       -10.2598252014        7.8058436855      -15.1592664739
 C        -5.8675938244        8.2812872764       -9.7192354040
 C        -4.4450832653        7.8706763828      -11.7817667021
 C        -2.5209037139        2.3470022652       -7.5643682854
 C        -0.2896714426        2.1466094225       -8.6874206432
 C         0.8869744917       -4.2939232183      -11.5923396819
 C        -0.5126172141       -4.0598291446       -9.5292315283
 C         4.2221423387       -4.2016820885       -4.5948925329
 C         5.8558484701       -5.3756762717       -6.0026178011
 C         0.9897794642      -11.1395432547       -4.4840266274
 C        -0.4726170244      -10.5517272637       -2.6393795716
 C         4.1678606068       -8.4698424969        2.4225015512
 C         4.5989898333       -6.7903761536        0.8320751410
 C         9.0348939437      -11.9181224743       -0.6439350204
 C         8.9277599211      -11.0297957224       -3.0619835732
 H         6.6495171061      -13.9568830733       -3.1908443619
 H         6.8168153678      -14.0964742950       -1.4288605881
 H         8.2159512366      -13.8334364269       -2.5046912680
 H         9.1079089138       -8.3268357182       -0.6694136679
 H         8.6818725494       -9.5034266767        0.4589165333
 H         6.9340535232       -7.3547029673       -0.5448138325
 H         7.6451434794       -7.4005140475        1.0615006194
 H         2.4917200709      -10.3120090631        1.1623139041
 H         3.3352896696      -11.2088379375        0.1007692134
 H         1.1066305806       -9.2736943511       -0.6918828441
 H         0.9300967651      -11.1357243296       -0.3556010825
 H         1.9581516037       -8.2301755061       -5.4970054120
 H         3.0437867095       -9.1334714446       -4.2758341851
 H         2.9255506195       -7.0131331823       -2.9181764106
 H         2.2706739410       -6.1236209332       -4.1768924857
 H         4.7969973165       -4.2128743094       -8.3225090431
 H         3.4538773620       -3.3942474121       -7.6827309694
 H         2.2641609742       -5.4450671964       -9.2746337322
 H         3.2573829920       -4.5146699490      -10.1357118704
 H        -0.3646242633       -0.9513546495       -8.9257533538
 H        -1.5788817435       -1.8220037951       -9.6227785386
 H        -1.5687505756       -0.1256328485      -11.5202299791
 H        -0.3124517783        0.7321336335      -10.8609811809
 H        -3.2137054716        4.4806254801       -8.7388019065
 H        -4.3500865122        3.5067507676       -9.6346997611
 H        -3.6874151713        4.9761070176      -11.6833995994
 H        -3.0685308712        6.2213467340      -10.5852950745
 H        -8.4667760074        7.4309781869      -10.4102341500
 H        -8.4067819259        5.7803806901      -11.1518066237
 H        -9.2514475740        8.1886486552      -12.7009019700
 H       -10.2834265775        7.3074714696      -11.4682227673
 H        -7.2917557018        6.7466671591      -14.8945072826
 H        -7.8330334413        7.0469724283      -16.4668252197
 H        -5.6795753121        5.7360274301      -16.4280271459
 H        -6.7371698401        4.7657416097      -17.4127962461
 H        -4.7977470148        1.2925477674      -13.6718023034
 H        -5.1870325689        0.0075371914      -14.7871570009
 H        -6.4464859281        0.3510529831      -12.0678683206
 H        -5.7758666791       -1.1570738099      -12.5852068099
 H       -12.1613663542       -0.0063802970      -12.9981079821
 H       -11.2130254094       -1.4223917495      -13.6332567075
 H       -11.4773943749       -0.6250216611      -15.6710986281
 H       -10.3245758258        0.6869403282      -15.3844741712
 H       -12.0819372799        2.6305019046      -17.2786458619
 H       -13.4824893330        3.2919216357      -18.0117506974
 H       -12.5539055478        1.7605910831      -20.0939822339
 H       -11.0716496701        2.0940772580      -19.1428024790
 H        -9.6948707242        4.3791631214      -23.5265525466
 H        -8.3978799855        3.4114002610      -22.6911894829
 H        -8.4708877558        5.1408811100      -22.3621349774
 H       -13.2530382131        3.1155153011      -22.0444775679
 H       -11.7499544226        2.1319738959      -21.9010460612
 H       -11.9090376403        3.3998843538      -23.1208468418
 H       -12.0303527683        6.1166090513      -21.0992359501
 H       -12.7328907961        5.4170230350      -22.5210893636
 H       -11.1007250015        5.9337319066      -22.5714658389
 H       -14.8771146901       -0.7799142036      -16.3962036335
 H       -14.4627376324       -0.6636587150      -14.6935023765
 H       -13.3172402927       -1.1762084447      -15.9514527151
 H       -14.6621461083        2.9443721275      -16.2773725132
 H       -15.1598741422        2.1257607540      -14.8724264411
 H       -15.5696650003        1.4257000908      -16.4980634870
 H        -9.6423526653       -2.5488207108      -12.8958690919
 H       -10.5935549326       -2.2342710352      -11.5900609375
 H        -9.1248469374       -2.8731899423      -11.2876254262
 H        -8.9087433746       -0.5810667869       -9.7477518208
 H        -8.6291177502        0.9962868131      -10.5108619880
 H        -7.4349880024       -0.2237999183      -10.5012430199
 H        -6.4576659420        1.3566502435      -17.4688663640
 H        -6.9622670167        3.0703783844      -17.8164299153
 H        -7.9731034267        1.8247065323      -16.8292705297
 H        -4.2847169387        1.8060140193      -16.7130086907
 H        -4.1516794012        2.9239515005      -15.3014303506
 H        -4.5637539874        3.4926681840      -16.9480864676
 H       -12.4221204775        6.4632611679      -15.1161270548
 H       -11.9858305112        4.8626347776      -14.2943572694
 H       -11.7910482466        5.2079156542      -16.0491603944
 H        -9.2546703790        8.2459427926      -15.2210329374
 H       -10.7454799097        8.3524887269      -14.3606032780
 H       -10.7592976223        8.0180626167      -16.1134062818
 H        -6.7909562797        7.9651889500       -9.1732964787
 H        -6.0774938343        9.2487970126      -10.1127237410
 H        -5.0639349267        8.3130416240       -9.0460509276
 H        -4.1540082776        7.0526407362      -12.4714483556
 H        -3.6770802544        8.2622947488      -11.1695446188
 H        -4.8695834241        8.7698393971      -12.2909583412
 H        -3.6286167348        2.2198616317       -7.8628689802
 H        -2.4879484430        3.4187823040       -7.2216739155
 H        -2.1145302029        1.6671133112       -6.8522386286
 H         0.0827534964        2.7826002107       -7.8761883988
 H         0.3298769855        2.1500087253       -9.6075442734
 H        -0.1689169011        1.1239000493       -8.4131905151
 H         1.2436875679       -5.2592050835      -11.2581457335
 H         1.4707866943       -3.8563942618      -12.4175496679
 H        -0.0828683989       -4.4408938800      -12.1267275918
 H        -0.1247909767       -5.0460484367       -9.3608649551
 H        -1.3738269280       -4.1437904954      -10.2149534395
 H        -0.7651721372       -3.5777873528       -8.6480557287
 H         4.8150590187       -4.2340173327       -3.7271308350
 H         3.1985652138       -3.9940409261       -4.3477656582
 H         4.5584430249       -3.3057940246       -5.0647630617
 H         6.2306328247       -4.3362284672       -6.0776685473
 H         5.9315655316       -5.8755492475       -6.9929861579
 H         6.5979274420       -5.8620552136       -5.3199230322
 H         2.0331080260      -11.4058007487       -4.6419274000
 H         0.5883717616      -10.5765292496       -5.3267400865
 H         0.3160944692      -12.0097644376       -4.4101186498
 H        -0.6179337440       -9.8102743807       -1.8623996377
 H        -0.4706341016      -11.5516050116       -2.1804034784
 H        -1.2582229332      -10.3633579901       -3.4318605208
 H         4.8784817938       -8.0032579099        3.1590613470
 H         4.3872887321       -9.6040860282        2.5991986301
 H         3.1959205375       -8.0794614961        2.6691448681
 H         5.0563378417       -6.2401799921        1.6585604397
 H         3.5954852646       -6.4811149461        0.6311741671
 H         5.2019444664       -6.3671374503        0.0346253375
 H         9.3801710955      -12.8922570041       -0.9040770551
 H         8.4032374984      -12.0624169697        0.2113214385
 H         9.7939525635      -11.3157654865       -0.1300578692
 H         9.6717136272      -10.1782239848       -2.9347705315
 H         8.2540243475      -10.8006819138       -3.8574481479
 H         9.4631534855      -11.8751449038       -3.4733755938
 Na        4.9234359363       -9.7704584284       -3.2923769155
 Na       -9.9549109569        2.9871294610      -14.1405764919
