232

 C         7.1063678183      -13.6514203327       -2.1182049155
 C         6.9040030188      -12.0958698702       -2.0722046363
 O         5.8332841966      -11.6610829465       -2.4283958956
 C         8.2460100297      -11.1712373518       -1.9448899706
 C         7.7632058612       -9.7712470481       -1.4061902698
 O         7.0341176222       -9.0135722893       -2.0883221143
 C         8.4137775535       -9.1427955595       -0.1681671594
 C         7.4293472206       -8.2244838488        0.4971234720
 C         6.1580668087       -9.0561822424        0.8317170140
 O         6.1740250979      -10.2671002857        0.7490506683
 C         4.6312545639       -8.2782131574        1.0519460477
 C         3.8848469076       -9.0009520001       -0.2346652998
 O         4.0385729971       -8.5091332225       -1.2825136458
 C         3.1689832627      -10.4451331935       -0.0240568429
 C         1.8417918550      -10.3841093206       -0.7216437651
 C         1.9888212065      -10.4837169977       -2.2223805354
 O         2.9082378354      -11.0380464449       -2.7877388404
 C         0.8996691597       -9.9357136933       -3.2043601232
 C         1.3500280714       -8.5434072016       -3.6573635019
 O         0.8648927252       -7.5304242558       -3.0932793287
 C         2.5486183523       -8.3883835594       -4.7264439327
 C         3.2559227304       -7.1454307415       -4.1804111152
 C         4.6038770121       -6.8700279175       -4.9334034608
 O         5.5230385363       -7.7110378791       -4.9701261615
 C         4.6307239146       -5.4820288004       -5.6960051942
 C         3.6908638298       -5.5528967070       -6.9611662328
 O         3.0098892950       -6.5813876901       -7.2690081819
 C         3.1630235954       -4.2244061630       -7.5908806838
 C         2.4827995000       -4.4196965032       -8.9160926135
 C         1.6028364270       -3.2086847239       -9.3434668414
 O         1.8094968069       -2.0560569208       -8.9712901147
 C         0.3514181814       -3.5455221058      -10.1567211964
 C        -0.1056122886       -2.1374419334      -10.7409818325
 O         0.4522445323       -1.7351500437      -11.7115101451
 C        -1.3101053999       -1.3190418154      -10.0646699071
 C        -1.3494389082        0.1186975902      -10.5792005918
 C        -2.3388139017        0.8586976091       -9.7351832053
 O        -3.5076456490        0.5703368813       -9.7702007256
 C        -1.9918991963        2.1254894140       -8.8778232140
 C        -2.2664382628        3.3510474534       -9.9018789085
 O        -1.6427746448        3.3429946969      -10.9566697135
 C        -3.1196982920        4.5611755748       -9.5227923769
 C        -3.6001036287        5.2760388397      -10.7382482008
 C        -5.0358904246        5.9421859987      -10.4108071375
 O        -5.7257735621        5.3322325629       -9.6026224180
 C        -5.5454904508        7.2554926479      -11.1157982160
 C        -6.9173389330        7.0594428933      -11.8788357944
 O        -6.9404023614        7.3320991795      -13.0576159419
 C        -8.1682448851        6.7616660707      -11.1757445441
 C        -9.3094906217        6.9562588180      -12.0821409315
 C        -9.5762695575        5.8611740849      -13.0889575236
 O        -9.5069549280        4.7233722533      -12.6970731563
 C       -10.2071289064        6.1963998317      -14.5850346047
 C        -9.0407941458        5.5103801205      -15.4781365108
 O        -9.2938407947        4.3375849299      -15.7983549251
 C        -7.7717648676        6.1800138501      -16.0275867802
 C        -6.5880565725        5.2473507266      -16.4192268975
 C        -6.7576837976        3.9203407896      -15.4843861748
 O        -6.7854507529        4.1251229569      -14.2868556777
 C        -6.6537391597        2.4974582078      -16.0784419161
 C        -7.1562822149        1.5820341492      -15.0105876094
 O        -8.1811075532        1.7795221741      -14.3722896578
 C        -6.0878623003        0.6777180646      -14.2100214126
 C        -6.6556069064        0.2968538124      -12.8997688049
 C        -7.8647517539       -0.6391445841      -13.1301020436
 O        -8.0169518234       -1.3196712631      -14.1163127025
 C        -8.9294746229       -0.7897343895      -11.9534523396
 C       -10.0846420627        0.0382338631      -12.5548173739
 O       -10.0839854924        1.2413652970      -12.3561598621
 C       -11.2142568982       -0.5472506488      -13.5576007590
 C       -11.3595010130        0.0062587689      -14.9307477061
 C       -12.3161152350        1.1791567558      -15.2411134589
 O       -12.0062667677        2.3359494311      -14.9429792221
 C       -13.7539703743        1.0314429593      -15.9804846546
 C       -13.2141936238        1.1114807906      -17.4818672998
 O       -12.8837920301        0.0956268606      -18.0702731771
 C       -12.8995342746        2.5671509404      -18.0039411284
 C       -12.2006583783        2.5661877771      -19.3592331201
 C       -11.9243896721        3.9440437815      -19.9787643818
 O       -12.1760851757        4.9296932887      -19.3100799657
 C       -11.2448703099        4.1829507016      -21.4165167623
 C        -9.6972253166        3.8938012277      -21.2695095551
 O        -9.1945181926        3.7028721645      -20.1825757484
 C        -8.9281293827        3.8669447530      -22.5799966622
 C       -11.9213772280        3.4205484895      -22.5870272541
 C       -11.4432308546        5.7208998031      -21.7331537909
 C       -14.4101713812       -0.3287205665      -15.5185555232
 C       -14.6739453081        2.1855281943      -15.4804844115
 C        -9.2013038360       -2.3119023403      -11.7431245899
 C        -8.6630038910       -0.1430151807      -10.5451250694
 C        -7.6810393436        2.2835606691      -17.2412622628
 C        -5.2161753190        2.2290531854      -16.5682195491
 C       -11.6628873199        5.5196691558      -14.7781733686
 C       -10.3415301990        7.6418944154      -14.9848319220
 C        -5.8224368777        8.2433162731       -9.9952559842
 C        -4.6432236848        7.9340483695      -12.1499341157
 C        -2.8814057631        2.0167115750       -7.5837310052
 C        -0.5361462162        2.2424873744       -8.4934951283
 C         0.7610326883       -4.4808731038      -11.3692115037
 C        -0.7406813822       -4.3430525859       -9.3362493499
 C         4.0240983029       -4.3204367579       -4.8245547231
 C         6.0558281739       -5.1019172512       -6.1325630950
 C         0.8477127234      -10.8971335621       -4.3678728590
 C        -0.5144211649       -9.9339054288       -2.5694074308
 C         4.1246845413       -8.6718823581        2.4007622998
 C         4.6299985451       -6.7796852813        0.8807950965
 C         9.0539744287      -11.9065180933       -0.8203179951
 C         9.0511437003      -11.1349433439       -3.2403540399
 H         6.1105540986      -14.0526681703       -2.2903385552
 H         7.4295293327      -14.0579578673       -1.2017603485
 H         7.6680127004      -14.0433805776       -2.9478155879
 H         9.3110619626       -8.6179292357       -0.6089808918
 H         8.7093394595       -9.9293280397        0.5822151807
 H         7.2845512037       -7.3859942430       -0.1886924850
 H         7.8773670771       -7.7662128032        1.4158902936
 H         3.0328784269      -10.7650456472        1.0293836647
 H         3.6738026863      -11.3773152585       -0.3906622639
 H         1.4100733136       -9.4406555201       -0.3635330549
 H         1.2825645663      -11.2730229354       -0.4867831762
 H         2.1432529359       -8.0432591998       -5.6804808601
 H         3.1086142427       -9.2937136078       -4.7778995782
 H         3.4792357352       -7.2970635073       -3.0641327352
 H         2.6394343061       -6.2425116338       -4.1546766228
 H         3.8774384488       -3.3458783242       -7.7193844848
 H         2.4490626269       -3.8112632695       -6.9093998608
 H         2.0103052669       -5.4109611690       -8.9949600377
 H         3.2784940742       -4.6512079666       -9.5575934749
 H        -1.0219160981       -1.2735416172       -8.9800196555
 H        -2.3430618913       -1.7988279400      -10.0408818528
 H        -1.4259685455        0.0743121984      -11.6984438860
 H        -0.3688794231        0.4904982533      -10.4171009745
 H        -2.5572079181        5.2600654987       -8.8989969533
 H        -3.9620988689        4.1813010296       -8.8546965683
 H        -3.9040528843        4.5395215204      -11.5438509307
 H        -2.8324915941        5.9340113207      -11.0998976199
 H        -8.4472295071        7.4939230880      -10.4257125762
 H        -8.2414785281        5.7202455620      -10.7693187937
 H        -9.1322155821        7.9995393125      -12.5548986135
 H       -10.3198822407        7.0053809039      -11.6292974388
 H        -7.4935258226        6.9506543259      -15.3147288459
 H        -8.0005863615        6.8065179742      -16.8643440115
 H        -5.6166135479        5.6362540038      -16.1288376989
 H        -6.4763162658        5.0923024235      -17.5950675013
 H        -5.1305462276        1.2578797057      -14.0290226165
 H        -5.8640047239       -0.2072605590      -14.7911143526
 H        -7.0109904628        1.2393027434      -12.3738107656
 H        -5.9546639403       -0.2533433132      -12.1510386739
 H       -12.1252236948       -0.5839587071      -12.9366217999
 H       -10.9567387601       -1.6100868076      -13.6867811894
 H       -11.5056208888       -0.7598836271      -15.6772186108
 H       -10.4006057242        0.4556980973      -15.1125018156
 H       -12.5819889253        3.2339772711      -17.2107552793
 H       -13.9580441376        2.9019158181      -18.2762988739
 H       -12.7903558605        1.9265164282      -20.0584260449
 H       -11.2803635576        1.9695323146      -19.2417004225
 H        -9.0714802921        4.8637389615      -23.0367307948
 H        -9.3011217814        3.0847994367      -23.1186329908
 H        -7.8536254530        3.6816955218      -22.3676995826
 H       -12.9758813236        3.6469524548      -22.4513158822
 H       -11.7194912667        2.3295323700      -22.3846379028
 H       -11.5992453977        3.8620328474      -23.4942463604
 H       -11.6964666384        6.2076596809      -20.7370775419
 H       -12.1952682047        5.9145533115      -22.5401269718
 H       -10.5572778611        6.2161149089      -22.1081008945
 H       -15.4611583740       -0.4046904049      -15.5874022522
 H       -14.3848650367       -0.5110446633      -14.4018122125
 H       -14.0268266743       -1.1443129286      -16.0762837680
 H       -14.1272668663        3.0662895628      -15.3037761451
 H       -15.0364003960        1.8241073369      -14.4963161283
 H       -15.5243346484        2.4708665941      -16.1533314197
 H        -9.5779890535       -2.9221219824      -12.5824700487
 H        -9.9264934277       -2.5890097869      -11.0101055641
 H        -8.3693957223       -2.8867033028      -11.4404627416
 H        -9.6091866772        0.1046757171       -9.9586227350
 H        -8.1600369736        0.7684255978      -10.5611957281
 H        -8.0133863933       -0.7552139276       -9.9089124697
 H        -7.8150307162        1.2443007079      -17.4658453823
 H        -7.1496929272        2.8238794239      -18.0162717937
 H        -8.5929169897        2.7253385125      -17.0600878014
 H        -5.0191229690        1.2204961249      -16.9812872324
 H        -4.5987062059        2.3491040617      -15.7418566996
 H        -4.9697058861        2.9535920870      -17.3626205474
 H       -12.4563613063        6.1106054978      -14.3478948894
 H       -11.5976227208        4.5474132655      -14.1813549479
 H       -11.9095923225        5.4123380058      -15.8262927870
 H        -9.5361069560        8.2763607055      -14.5945636668
 H       -11.2572674379        8.0542368127      -14.6901077908
 H       -10.3190156000        7.6963361379      -16.0847146107
 H        -6.2814704824        7.8278434310       -9.0721372218
 H        -6.4875485325        9.0176855008      -10.3676083756
 H        -4.8808491785        8.7932294032       -9.7489060646
 H        -4.5252935713        7.2203662394      -12.9501870128
 H        -3.7140166065        8.2679984016      -11.7121893422
 H        -5.2582040131        8.7528390204      -12.4657696046
 H        -3.9280720246        2.1195963960       -7.8860253562
 H        -2.7087157430        2.8439781790       -6.9726192331
 H        -2.5699596459        1.1468254212       -7.1194601448
 H        -0.4248739621        3.0968773152       -7.8212341489
 H        -0.0040602040        2.4597782578       -9.4908475637
 H        -0.1245536127        1.4468721851       -7.8608634050
 H         0.7819024894       -5.4847941650      -11.0260681486
 H         1.6277046431       -4.1019782445      -11.8089129420
 H         0.1045801662       -4.4988019890      -12.2865899330
 H        -0.3200660015       -5.3130787923       -8.9366836678
 H        -1.6331574819       -4.3908308892      -10.0370059238
 H        -1.0757078338       -3.8158449874       -8.5026973725
 H         4.4066638691       -4.3698805862       -3.7571391541
 H         2.9531447136       -4.3755851779       -4.7516863037
 H         4.2389105047       -3.2755949696       -5.1865086174
 H         6.1158750379       -4.4114930760       -6.9248622778
 H         6.5780879891       -5.9849304183       -6.4265036941
 H         6.5845382480       -4.7851259676       -5.2311625284
 H         1.7259299067      -10.8506088087       -4.9393700945
 H        -0.0109229875      -10.6548442073       -4.9822744692
 H         0.7397308278      -11.9243315407       -3.8561694631
 H        -0.5821687541       -9.2428577861       -1.8033874928
 H        -0.6572376517      -10.9870524408       -2.2299451965
 H        -1.3271812757       -9.7606494494       -3.2603054576
 H         4.4565847270       -7.9620722512        3.1491197012
 H         4.4427040944       -9.7233209988        2.5449187664
 H         3.0792514287       -8.6543834120        2.4038072475
 H         5.5132836617       -6.2637695954        1.2255393925
 H         3.6970313520       -6.3992866220        1.2472684792
 H         4.5443428004       -6.4938981630       -0.2104335284
 H         9.2986427112      -12.9029971753       -1.0830852727
 H         8.5235130431      -11.8710479241        0.1394837385
 H        10.0057032428      -11.4510528993       -0.4707604816
 H        10.1409267881      -10.8641580035       -3.0964669852
 H         8.6102805592      -10.5036522918       -3.9746221935
 H         9.1320156182      -12.0611398219       -3.7748529523
 Na        5.1426847245       -9.3793421655       -3.3520494781
 Na       -9.9357506818        2.8919540265      -14.1118069449
