232

 C         7.0688391835      -13.5882355384       -2.0006054228
 C         6.9403670464      -12.0422361441       -2.1998358967
 O         5.8950383133      -11.5032868434       -2.5186078383
 C         8.1892918401      -11.2781864611       -1.8550134807
 C         7.8942400360       -9.7906088126       -1.4346211138
 O         7.1316918471       -9.1133173218       -2.0887052103
 C         8.4886200958       -9.1879158424       -0.1259275223
 C         7.3876217060       -8.2637284804        0.5560914410
 C         6.1244797418       -9.0727541595        0.7901717796
 O         6.2753031343      -10.2658091225        0.7941366802
 C         4.7405504804       -8.3771827450        0.9825642902
 C         3.9493408159       -9.0402690465       -0.1652154158
 O         3.8269553104       -8.5186236500       -1.2871190144
 C         3.2837562699      -10.3712216772       -0.1145124053
 C         1.8741786652      -10.3643111446       -0.8574917820
 C         1.9993859378      -10.4117153329       -2.3688843818
 O         2.9922366711      -10.9231639304       -2.8681839854
 C         0.8165680582       -9.9273387095       -3.2821444731
 C         1.3787061785       -8.4703602844       -3.6428173564
 O         0.9715083330       -7.4426341755       -3.2114199432
 C         2.5574178171       -8.3177548843       -4.6579012555
 C         3.4003715154       -7.1031650995       -4.2637404176
 C         4.6185222648       -6.8341331870       -5.1263006400
 O         5.5640358386       -7.6112871183       -5.0693087259
 C         4.6298291037       -5.4762905843       -5.7640048757
 C         3.4348742968       -5.6101388034       -6.9087356643
 O         3.1855065138       -6.6709483640       -7.3195409655
 C         3.0418918171       -4.2406800303       -7.4860514616
 C         2.3618346215       -4.3509994299       -8.8269213449
 C         1.4735972763       -3.1997004482       -9.2658601426
 O         1.8037046831       -2.0741709812       -9.0488263595
 C         0.2694211274       -3.5565386120      -10.1485578248
 C        -0.1126259310       -2.2597302770      -10.7496720295
 O         0.5172845938       -1.7360593405      -11.6684196996
 C        -1.2101199564       -1.4497956060      -10.1174704624
 C        -1.3551929530        0.0585169261      -10.4792174683
 C        -2.4767007400        0.8585424095       -9.7708820336
 O        -3.6180042343        0.4780112201       -9.7520675577
 C        -2.0530044741        2.1389237342       -8.8999062787
 C        -2.3000382314        3.4398159177       -9.7846338041
 O        -1.6645542519        3.3857267013      -10.8414371737
 C        -3.1094455684        4.6569130216       -9.4917611085
 C        -3.6419076045        5.3293505144      -10.8580546472
 C        -5.0742878100        5.9546876657      -10.5411669180
 O        -5.7743752930        5.4251738817       -9.7353023037
 C        -5.4674941211        7.3339608466      -11.2042602777
 C        -6.9393199221        7.0705829436      -11.8942783629
 O        -6.8792393104        7.2595296279      -13.1417657130
 C        -8.2055797457        6.7428385818      -11.1072292651
 C        -9.5112558352        6.9693269580      -11.9372634553
 C        -9.7384619742        5.8143738431      -13.0039459088
 O        -9.4660595945        4.6679780242      -12.7417763017
 C       -10.0868790945        6.1354078632      -14.5269994646
 C        -9.1286148063        5.4309448989      -15.5535814409
 O        -9.2908110123        4.2690135269      -15.8348219624
 C        -7.9027880966        6.1498484948      -16.0342344608
 C        -6.6915471603        5.2172867758      -16.3801995260
 C        -6.7538102978        3.9470996292      -15.5309739129
 O        -6.7552447233        4.0664621336      -14.3197669201
 C        -6.8406252131        2.4793525224      -16.2854714654
 C        -7.2460213396        1.6585931778      -14.9912205082
 O        -8.3158583808        1.7097874091      -14.4677855877
 C        -6.1333597691        0.7664209260      -14.2478142191
 C        -6.7148302015        0.2808512820      -12.8855092478
 C        -7.9138709846       -0.6650274267      -12.9347743979
 O        -8.0957640499       -1.3109940428      -13.9571228452
 C        -9.0741540464       -0.8025052108      -11.9230867789
 C       -10.1807680790        0.0331425925      -12.5673985941
 O       -10.2052836023        1.2073949471      -12.3131634983
 C       -11.2018437474       -0.6526355496      -13.5286886868
 C       -11.2606970110       -0.1710260638      -15.0401453156
 C       -12.2270152294        1.0717435196      -15.1240660947
 O       -11.9186948869        2.1781251840      -14.7382875420
 C       -13.5835387963        1.0842208731      -15.8070987373
 C       -13.2216799393        1.2258629905      -17.4142547942
 O       -12.7680750032        0.2266709828      -17.9710741163
 C       -13.0733561407        2.6122250445      -18.0887323208
 C       -12.3146952862        2.4982529150      -19.4595047698
 C       -11.9114743731        3.9068198268      -19.9038907121
 O       -12.1784216352        4.9032173023      -19.2192011536
 C       -11.2291629113        4.1880281788      -21.3690212563
 C        -9.6374535939        3.8912535074      -21.2454819070
 O        -9.1225086246        3.8951004884      -20.1355256466
 C        -8.7358010353        3.7839840317      -22.5120548574
 C       -12.0344773505        3.5030867834      -22.5070845826
 C       -11.2536607957        5.7725447663      -21.7455314849
 C       -14.2666592777       -0.2373110597      -15.5339695977
 C       -14.5479144401        2.2647683738      -15.5427218420
 C        -9.1412912332       -2.3483422856      -11.8644804896
 C        -8.7141545132       -0.1420649978      -10.6408072040
 C        -7.8289079698        2.2582446556      -17.5058343196
 C        -5.3940376380        2.1396151647      -16.7344134346
 C       -11.5074958460        5.6023776187      -14.6095141506
 C       -10.2290434891        7.7141132348      -14.7633484896
 C        -5.8014566031        8.3500724144      -10.0217004002
 C        -4.4373642808        7.9245089071      -12.1898312429
 C        -2.9368528715        1.9177981827       -7.6086863060
 C        -0.5643332874        2.1825051278       -8.4499993951
 C         0.6652588023       -4.5101252788      -11.3092904781
 C        -0.8095379753       -4.3541545881       -9.3294487131
 C         4.2373077938       -4.3339761156       -4.8352428000
 C         6.1888198936       -5.1335954268       -6.0431059518
 C         0.7513054602      -10.9446272967       -4.4563376488
 C        -0.5527456429       -9.7630481930       -2.4422906830
 C         4.0591256261       -8.6898630456        2.4213620931
 C         4.8127838188       -6.8152180132        0.9518588123
 C         9.1406816391      -12.0230726641       -0.8971596256
 C         8.8744591422      -11.0956408151       -3.2084933060
 H         6.1026480384      -14.1041580582       -2.0821431882
 H         7.5448033777      -13.8501994756       -1.1058801092
 H         7.5845404931      -14.0211253669       -2.7940649457
 H         9.3534424430       -8.6557869668       -0.3167146615
 H         8.6566148363      -10.0042107955        0.5221957504
 H         7.4074153738       -7.3327858310       -0.0206595271
 H         7.7969327224       -7.9506891290        1.5675094997
 H         3.3036017911      -10.9852909684        0.7533487592
 H         3.8355867985      -11.1009900387       -0.7843243105
 H         1.3949063673       -9.3851218693       -0.5949808816
 H         1.3807858141      -11.3058484009       -0.5287521088
 H         2.1525510952       -8.1447886707       -5.6598390091
 H         3.1287092486       -9.2188096520       -4.6015915323
 H         3.7299432206       -7.2183056705       -3.2207327923
 H         2.8984049402       -6.1266474451       -4.2456541865
 H         3.8738908613       -3.4804927800       -7.5086563504
 H         2.3538498748       -3.7837673061       -6.7633098256
 H         1.8926118852       -5.3097445598       -8.8112936831
 H         3.1517188620       -4.6368971931       -9.5224842485
 H        -1.2934357236       -1.6551976849       -9.0793576789
 H        -2.1578757138       -1.9211507978      -10.5286022459
 H        -1.5184216168        0.0632982452      -11.6093747141
 H        -0.2875731068        0.5684153649      -10.3528675354
 H        -2.5003297424        5.3510582715       -9.0132980721
 H        -3.9079259949        4.3462609149       -8.7114839028
 H        -3.7547945242        4.5685531214      -11.6563814342
 H        -2.9237297715        6.1055332871      -11.1574478564
 H        -8.3920263954        7.3544486665      -10.1806392140
 H        -8.3240038785        5.6581498602      -10.8977689715
 H        -9.5372423211        7.9568021000      -12.4252695434
 H       -10.5048277223        6.9180068540      -11.3123968030
 H        -7.6737208441        7.0146490588      -15.3507013052
 H        -8.0885245226        6.7084618621      -16.9257157479
 H        -5.6428112612        5.6585164582      -16.2672496601
 H        -6.7303100874        4.8912275526      -17.4325234374
 H        -5.1651520982        1.3163478324      -13.9912470938
 H        -5.9253958660       -0.0541038793      -14.9207882398
 H        -6.8928043978        1.1023333748      -12.2019435525
 H        -5.9067491845       -0.3670754062      -12.3958868975
 H       -12.1878939973       -0.5440415115      -13.0806047498
 H       -11.0523049401       -1.7447180625      -13.4647824521
 H       -11.6580774411       -0.9192532570      -15.6411487036
 H       -10.2551895060        0.1339951215      -15.4381350530
 H       -12.5534659077        3.2911751709      -17.3847085517
 H       -14.0428214291        3.0536912348      -18.1924665335
 H       -12.7370182497        1.9560863644      -20.2508350408
 H       -11.4315942400        1.8449468923      -19.2186969222
 H        -8.4527469945        4.7642070754      -22.9441028984
 H        -9.2879940182        3.0981587213      -23.1498298194
 H        -7.8765437609        3.2310758584      -22.2138836917
 H       -13.0627573231        3.7933011136      -22.4305320016
 H       -11.8990301110        2.4904779771      -22.3335748103
 H       -11.6032910936        3.8816875240      -23.4116058202
 H       -11.2769034343        6.2639797944      -20.8088600770
 H       -12.1872590516        5.9827982917      -22.3298583110
 H       -10.4287415171        6.2252801091      -22.3758813895
 H       -15.3227038583       -0.3656998515      -15.8079511373
 H       -14.4373018424       -0.4424939671      -14.4725135458
 H       -13.7189549449       -1.0221884518      -16.0567534618
 H       -13.9618395219        3.2132085153      -15.4059737291
 H       -15.0801453926        2.0225691609      -14.6218028289
 H       -15.2421371820        2.4726347113      -16.3399453258
 H        -9.2979141655       -2.7444348197      -12.8400115805
 H        -9.8862576425       -2.8612704346      -11.3681335366
 H        -8.2888900482       -2.9227841688      -11.5090878984
 H        -9.5309416638       -0.2599784937       -9.9083906126
 H        -8.5262492988        0.9273272668      -10.6427941229
 H        -7.8013315514       -0.6043388467      -10.2077531341
 H        -8.0817339758        1.2588830963      -17.5607462187
 H        -7.2993648095        2.5763308431      -18.3486772965
 H        -8.7932548097        2.9153341127      -17.4024482839
 H        -5.1231777634        1.0797013469      -16.6522709710
 H        -4.7737619685        2.5828705272      -15.9758272135
 H        -5.1263485071        2.4926019825      -17.7159854866
 H       -12.2417812476        6.2719013193      -14.0896014880
 H       -11.6742706442        4.6111659015      -14.2678120712
 H       -11.7234669509        5.7730837545      -15.7114917040
 H        -9.3149017896        8.2271522602      -14.5984775330
 H       -11.0047005712        8.1546168115      -14.1521413441
 H       -10.5495218616        7.8686941467      -15.7697681540
 H        -6.5037452934        7.8868380219       -9.2574997553
 H        -6.2439532152        9.2796616839      -10.3794183791
 H        -4.9328962151        8.6437737142       -9.5161613046
 H        -4.1962867624        7.0556302789      -12.8321149451
 H        -3.5963637550        8.2238644945      -11.6472908041
 H        -4.9279629465        8.7564216435      -12.7587494815
 H        -3.9892356103        2.0140998600       -7.8555340189
 H        -2.7076200920        2.7998285221       -6.9601042267
 H        -2.5972750008        1.0367441310       -7.1516013913
 H        -0.3266330550        3.1883122763       -7.9172194859
 H         0.1665714213        1.9846378495       -9.2494490419
 H        -0.5029344963        1.5516702569       -7.5305079473
 H         0.9112707774       -5.4717426285      -10.9483098617
 H         1.3429168712       -3.9635479761      -11.9915086788
 H        -0.1498131671       -4.7393817838      -11.9715762918
 H        -0.3599727047       -5.1814819766       -8.8331724226
 H        -1.6515001157       -4.5513901728       -9.9934503952
 H        -1.2379481360       -3.7282382638       -8.5292540991
 H         4.6601061640       -4.3966772038       -3.8618049018
 H         3.1376891901       -4.1711508404       -4.6596291734
 H         4.5701008343       -3.4125875514       -5.2901462915
 H         6.3607985606       -4.4245780743       -6.8648475053
 H         6.7939779926       -6.0217538430       -6.2482666720
 H         6.5586567405       -4.8170973738       -5.0717143252
 H         1.7357311479      -10.8888004882       -5.0273504057
 H        -0.0270808721      -10.5625765132       -5.1251442255
 H         0.6002537346      -11.9015190803       -4.0729232605
 H        -0.4416436369       -9.0535477990       -1.6249574904
 H        -0.9494659343      -10.6980565366       -2.2075016069
 H        -1.3368488775       -9.3431020941       -3.1258534612
 H         4.2197960300       -7.7820482630        2.9441239520
 H         4.5835886246       -9.5840261975        2.8434612171
 H         3.0135432738       -8.9807121379        2.3579046894
 H         5.6829537409       -6.4705215667        1.5379307011
 H         3.9089307189       -6.5191142909        1.4176793390
 H         4.7979333359       -6.2483737859        0.0493067881
 H         9.6169698051      -12.8812965883       -1.3580116842
 H         8.7077354524      -12.2539833827        0.0373607856
 H         9.9754233508      -11.4045844476       -0.5631978746
 H         9.9009126365      -10.6898886719       -3.0528710429
 H         8.3248535492      -10.5272874983       -3.9548541309
 H         9.1344007753      -12.0319018252       -3.7189555781
 Na        5.2073707005       -9.3750299604       -3.2634888467
 Na       -9.9879339795        2.9200072454      -14.1362645214
