232

 C         6.7301685765      -13.5392146759       -1.8176093791
 C         6.9737027618      -12.0491528265       -2.1286252441
 O         6.0728471916      -11.4615585185       -2.7095212550
 C         8.3116376739      -11.3173584811       -1.8968117108
 C         8.0747816617       -9.8164012635       -1.3710219514
 O         7.3423376362       -9.0154348779       -1.9536352550
 C         8.5752336531       -9.3095875513        0.0360724674
 C         7.4067161111       -8.4676040807        0.6011487375
 C         6.2211152173       -9.2571124887        0.8535425006
 O         6.2203551558      -10.4831002942        0.9886212704
 C         4.8579036641       -8.4471436833        1.0328118053
 C         3.9950117187       -8.9219142186       -0.2662604285
 O         3.9034341222       -8.1564509087       -1.2151061410
 C         3.3754128652      -10.2777228553       -0.3088241276
 C         1.9903964703      -10.4012954241       -0.9931876937
 C         2.1439513083      -10.2827512054       -2.4561267058
 O         3.1930348623      -10.5354824624       -3.0363979283
 C         0.8344377464       -9.8145090804       -3.2769730911
 C         1.4517143933       -8.4620601612       -3.7275666215
 O         0.8029295830       -7.4644739805       -3.3417338631
 C         2.6242281902       -8.2340896727       -4.6949375904
 C         3.3024772950       -6.9623889230       -4.2433605566
 C         4.6982646488       -6.8723582510       -5.0348507799
 O         5.5055059330       -7.7981489022       -4.8955345593
 C         4.9046170067       -5.4397545482       -5.7149537341
 C         3.7357623217       -5.4622708533       -6.7615145574
 O         3.6197908179       -6.5929930603       -7.3606057781
 C         2.9086616186       -4.2285689673       -7.3264903056
 C         2.1972952244       -4.5903859678       -8.7456635889
 C         1.4504709792       -3.3891138051       -9.2675019040
 O         1.7055314197       -2.2440782696       -8.9121650077
 C         0.1812372435       -3.6136903955      -10.1972076590
 C        -0.2593560489       -2.2125025918      -10.7793857975
 O         0.3477483548       -1.7205285989      -11.6839224425
 C        -1.4190084930       -1.4704363862      -10.2413958617
 C        -1.3430241268        0.0875448318      -10.5281917867
 C        -2.4914038568        0.8231950462       -9.7656226614
 O        -3.6368675476        0.4011606537       -9.7978178790
 C        -2.2029315149        2.1037983298       -8.8384664252
 C        -2.3280509854        3.3242437963       -9.8471203117
 O        -1.6213692868        3.3903655411      -10.8231140329
 C        -3.3242470942        4.4822840133       -9.4538790339
 C        -3.7385903870        5.4040173397      -10.5802436175
 C        -5.1832148573        6.0203890333      -10.5086066373
 O        -6.0570473452        5.4295523554       -9.8768640594
 C        -5.4886101691        7.4147326245      -11.3224065144
 C        -6.8679474012        7.1435452427      -12.0593559294
 O        -6.9907256595        7.1354946572      -13.2304484333
 C        -7.9212912087        6.6984955866      -11.1250847207
 C        -9.3913151710        6.7619514302      -11.6919190698
 C        -9.5687732982        5.7821591541      -12.8249006379
 O        -9.4249972438        4.6054526708      -12.6288016318
 C       -10.0937787879        6.3386018225      -14.3684276320
 C        -9.2527429091        5.6151759773      -15.4182423833
 O        -9.5588162569        4.4504969279      -15.7167354815
 C        -7.9596571722        6.1564979080      -16.0424741170
 C        -7.1121440226        5.0658065529      -16.6795362771
 C        -6.8235519902        3.8479419004      -15.7644159642
 O        -6.5870901462        4.0496873396      -14.6098537621
 C        -6.9733707442        2.2857927473      -16.3566142231
 C        -7.3651074606        1.4548071475      -15.1587981830
 O        -8.5305753456        1.2485901479      -14.8802516435
 C        -6.2426679282        0.8541433869      -14.2987597008
 C        -6.7866643504        0.3452269500      -12.8882220763
 C        -7.8933707628       -0.6563121662      -13.1124050571
 O        -7.9626186061       -1.2855627413      -14.1169770843
 C        -9.1361199811       -0.8330858212      -12.0204426820
 C       -10.3366068704       -0.0980413234      -12.6114353088
 O       -10.6091309944        1.0697245114      -12.3269234710
 C       -11.2556828484       -0.9040160006      -13.5545185268
 C       -11.2788702194       -0.2185682473      -14.8900393627
 C       -12.2179027975        1.0420667960      -14.9741766761
 O       -12.0403874574        2.0916855156      -14.3500989955
 C       -13.3852379202        1.1574206581      -15.9342568180
 C       -12.9106715060        1.1652096582      -17.4891068517
 O       -12.4420734726        0.1699400064      -17.9931247557
 C       -13.1569004534        2.4674694375      -18.2189372747
 C       -12.4420765708        2.6331759182      -19.5079190366
 C       -11.9305741921        4.0574691547      -19.8328787273
 O       -12.0609283707        4.9997121035      -19.0906504243
 C       -11.1309886432        4.2706176718      -21.1754160450
 C        -9.5882912917        3.9518286440      -21.0276405327
 O        -9.0623074758        4.1040258291      -19.9377112721
 C        -8.8750133808        3.4515532487      -22.3175776588
 C       -11.8445489402        3.3873071701      -22.3974016544
 C       -11.0855435688        5.8003575461      -21.4709021470
 C       -14.2445842382       -0.0946462336      -15.9056267960
 C       -14.2253788892        2.3826104149      -15.3601817466
 C        -9.5088052394       -2.2236855526      -11.7390233882
 C        -8.6523970468       -0.2714946523      -10.6671965292
 C        -8.1087150708        2.3134800240      -17.4344363663
 C        -5.4653702421        2.0197225863      -16.9193665574
 C       -11.5661156127        5.8811276949      -14.5213729107
 C        -9.8991911163        7.7952565434      -14.5382882810
 C        -5.5925285370        8.4580398277      -10.2075211261
 C        -4.3419327663        7.9353567142      -12.3083616323
 C        -3.2105581316        2.3228431552       -7.6943953419
 C        -0.7690103662        2.0696938605       -8.3177965450
 C         0.5743013442       -4.6343597190      -11.3005082811
 C        -0.9403253836       -4.1788809962       -9.3127672307
 C         4.5654613771       -4.2622948838       -4.7153583162
 C         6.1857273041       -5.2876796927       -6.5418656726
 C         0.4455177159      -10.6089432970       -4.5545580057
 C        -0.4368349642       -9.5665851885       -2.4355890068
 C         4.1862798956       -8.9934305969        2.2302764667
 C         4.9174721162       -6.9308763707        0.8180349041
 C         9.3264789045      -11.9979500612       -1.1333676598
 C         8.8283641345      -11.0395223349       -3.3248276154
 H         5.7591254474      -13.8699933514       -2.2091742428
 H         6.8522445155      -13.6615343210       -0.7145419238
 H         7.4432616608      -14.2478369064       -2.3631609866
 H         9.4657045069       -8.6120669698       -0.0608172165
 H         8.7507368442      -10.1352414092        0.7651531323
 H         7.3117556133       -7.6407109106       -0.0697088160
 H         7.7657569349       -8.0260988317        1.4941348547
 H         3.2580489325      -10.8062805977        0.6636586670
 H         3.9676855955      -11.0154096922       -0.7747884410
 H         1.1989123362       -9.8424350058       -0.5518571821
 H         1.9069005131      -11.4848617130       -0.9133577420
 H         2.1191597495       -8.0809923726       -5.6761645205
 H         3.3756089711       -9.0667193442       -4.7851615333
 H         3.6012022592       -7.1167096662       -3.2023425896
 H         2.7893036444       -6.0398450125       -4.3385803041
 H         3.5804216349       -3.3814498698       -7.5218012927
 H         2.1575575300       -3.8703667146       -6.5770473561
 H         1.5954798424       -5.5086042312       -8.5200291924
 H         2.9263807560       -5.0205920434       -9.4780215719
 H        -1.5866373583       -1.5830022662       -9.1462742018
 H        -2.2555737296       -1.9488060858      -10.6681804084
 H        -1.5729283376        0.3875685208      -11.5345443791
 H        -0.3834269098        0.3419052920      -10.3205522447
 H        -2.6873356641        5.0712334688       -8.7173054537
 H        -4.1509624413        4.1075737553       -8.9278888009
 H        -3.6919822542        4.7584152210      -11.4518477837
 H        -3.0476822317        6.2152536404      -10.6991735261
 H        -8.0397025098        7.4166023609      -10.3772528304
 H        -7.9032039750        5.7317731654      -10.6753806684
 H        -9.5648960103        7.7713377007      -12.0909254891
 H       -10.1131026608        6.6374812891      -10.9917620017
 H        -7.3391940999        6.7704889965      -15.4268489238
 H        -8.2184730964        6.9337631294      -16.8314109709
 H        -6.1958239193        5.4548327518      -16.9014666006
 H        -7.5163674187        4.6327803281      -17.6165322001
 H        -5.4741416152        1.5301660614      -14.0202550629
 H        -5.8253585927       -0.0023660474      -14.8858239014
 H        -7.2764197463        1.1119993225      -12.3093844347
 H        -5.9837368988        0.0260791789      -12.3009057594
 H       -12.2743378862       -1.0561412948      -13.1405044072
 H       -10.9807213230       -1.9535420973      -13.6115265762
 H       -11.6325932094       -0.9619907467      -15.6959723923
 H       -10.2986820854        0.1255395613      -15.1794992703
 H       -13.0216719361        3.2903298061      -17.5295206082
 H       -14.2507969680        2.6154859904      -18.4072576632
 H       -13.1768154510        2.4254651119      -20.3704790488
 H       -11.7927413646        1.8168525677      -19.7768296569
 H        -8.1363461095        4.2428644380      -22.4369338072
 H        -9.5440571672        3.3987143053      -23.1265976802
 H        -8.3732323084        2.4425707219      -22.2335934722
 H       -12.8447423853        3.7541569419      -22.3276408645
 H       -11.7653821636        2.2887656347      -22.1597330907
 H       -11.3698672896        3.6513895157      -23.3160739561
 H       -10.1854450091        6.2778316620      -21.0161156549
 H       -11.9723083929        6.3033036710      -21.1588288205
 H       -10.9886632725        5.9222892827      -22.4847052266
 H       -15.1751970922       -0.0962968007      -16.4304926378
 H       -14.6308272591       -0.2631477868      -14.8840574064
 H       -13.7039688332       -0.9501051857      -16.2784532726
 H       -13.8310230170        3.3349570459      -15.5265857610
 H       -14.3861137994        2.1807300087      -14.2992023040
 H       -15.2269257162        2.3691278070      -15.8379407008
 H        -9.5996433675       -3.0794872547      -12.4172986594
 H       -10.5034678775       -2.2830610247      -11.2231695258
 H        -8.9314082115       -2.7344140313      -10.9986290760
 H        -9.0419262611       -0.8875027548       -9.8480230934
 H        -9.1195204409        0.6791352466      -10.4776774670
 H        -7.6071039593       -0.0983430566      -10.5061044757
 H        -8.2660321818        1.2104864138      -17.7149927207
 H        -7.9676789942        2.9816421801      -18.3517947706
 H        -8.9178733175        2.6099237667      -16.8643077840
 H        -5.2932187176        0.9678637849      -17.1780819936
 H        -4.6663018842        2.1845794748      -16.1914730730
 H        -5.2969944436        2.7148401798      -17.7878403339
 H       -12.1674749024        5.9618315345      -13.6320187649
 H       -11.4131793059        4.7494501482      -14.5845783306
 H       -12.0345219412        6.2811766635      -15.3894987855
 H        -8.8301799045        8.0754451152      -14.4125589645
 H       -10.5675882837        8.3977692569      -13.9485652871
 H       -10.2525257742        7.9867020895      -15.5747402804
 H        -6.3511248855        8.3174933055       -9.4960529935
 H        -5.6200293074        9.4741348678      -10.5359548493
 H        -4.6426628416        8.3874157966       -9.6124431665
 H        -4.1610592489        7.1626800405      -13.0312468850
 H        -3.4410141086        8.0324833330      -11.6342898623
 H        -4.6470714136        8.8480080118      -12.7610288514
 H        -4.2910160823        2.2907219415       -8.0234513593
 H        -2.9567555711        3.2471681495       -7.1925161201
 H        -2.9179736994        1.4603914303       -7.0321536385
 H        -0.6409143486        2.7717987275       -7.5868829124
 H        -0.0906145598        2.2931556986       -9.1381181558
 H        -0.6028028226        1.1523845491       -7.8152620754
 H         1.2983613599       -5.4221785353      -11.0507217565
 H         0.8440066351       -4.0051034226      -12.1126786815
 H        -0.2712571154       -5.3004106038      -11.6296160795
 H        -0.7109372729       -5.1606485148       -8.8384343223
 H        -1.8868182958       -4.2727825347       -9.8556812506
 H        -1.1322053404       -3.5162845444       -8.5280588559
 H         5.2288645378       -4.2652885863       -3.8350199565
 H         3.6267417797       -4.3577809390       -4.3043053045
 H         4.5705932415       -3.3080233827       -5.2264599503
 H         6.1607392759       -4.3278369423       -7.0522000631
 H         6.2167807585       -6.0092063392       -7.3695740602
 H         7.0926443894       -5.4990041143       -5.9366385539
 H         1.2781626574      -10.9620907834       -5.0497394707
 H        -0.0277019318       -9.8772577454       -5.1650193064
 H        -0.1720385425      -11.5176317493       -4.2126248682
 H        -0.2428162638       -8.8036050041       -1.6947814482
 H        -0.9606777103      -10.5275523925       -2.0979397971
 H        -1.1881003774       -9.2054343923       -3.1158733873
 H         4.5765545324       -8.4375410855        3.1142016891
 H         4.3300337473      -10.0691917107        2.1962921007
 H         3.0983159373       -8.9670654715        2.0814289445
 H         5.3490940367       -6.4415309693        1.6860650547
 H         4.0344545542       -6.3506558783        0.5113273401
 H         5.5986389759       -6.8028706471       -0.0769737132
 H         9.7553853163      -12.8420204075       -1.6270015011
 H         8.9335976579      -12.2723438479       -0.1301981227
 H        10.2090990964      -11.3805121472       -0.9573503967
 H         9.6994758646      -10.3865133065       -3.3298046951
 H         8.1179365304      -10.6308099999       -4.0345673826
 H         9.2743773504      -11.9088594488       -3.7839176583
 Na        5.2517759250       -9.3059318460       -3.1543476589
 Na       -9.8716262041        3.0695971792      -13.8898311110
