232

 C         6.7508604666      -13.1386453979       -1.1424345806
 C         7.0301516346      -11.8834377057       -2.1083685022
 O         6.1522256871      -11.5058927618       -2.8472654169
 C         8.3905096759      -11.1502489976       -2.1806333562
 C         8.1894982956       -9.9191086876       -1.2639322819
 O         7.4820548743       -9.0702344147       -1.8258971080
 C         8.7329007886       -9.8853373793        0.2111978745
 C         7.6572788723       -9.0023899614        0.9318261051
 C         6.2829867183       -9.7492419171        1.0422232137
 O         6.1543442062      -10.9720759075        1.0544606836
 C         5.0267719178       -8.7474875376        1.0096751811
 C         4.3900374006       -8.9430439251       -0.4009883808
 O         4.5957691183       -8.1803708497       -1.2856880757
 C         3.7260286797      -10.2510057028       -0.6366343594
 C         2.3100576426      -10.1037785230       -1.3273189414
 C         2.3872168939       -9.7054415988       -2.7845562702
 O         3.4233422782       -9.8619538530       -3.3951292343
 C         1.0290140347       -9.4438900942       -3.5184601520
 C         1.1358422432       -7.8903185776       -4.0118550355
 O         0.2472366444       -7.1728605137       -3.7252425658
 C         2.3209896280       -7.4451073834       -4.8653999710
 C         3.2377888456       -6.4122725340       -4.1069186261
 C         4.6773371202       -6.4311462848       -4.8027502046
 O         5.4633846852       -7.2465478902       -4.4084468890
 C         4.9527107461       -5.5774705288       -6.0957149595
 C         3.7396682000       -5.7432499968       -7.1175783247
 O         3.6298959700       -6.7516437805       -7.7375843328
 C         3.1625386687       -4.4185911878       -7.4429902644
 C         1.9200357850       -4.5957584796       -8.3588501885
 C         1.1270932248       -3.3869929479       -8.8327357323
 O         1.3183753950       -2.2689950577       -8.4335368803
 C        -0.0095391653       -3.7084254637       -9.9705576076
 C        -0.3600891700       -2.2654186840      -10.5765471867
 O         0.0034222666       -1.8731856008      -11.6710031869
 C        -1.1620303886       -1.3116998199       -9.6846878154
 C        -1.4387887941        0.0740239199      -10.3999333973
 C        -2.6251094383        0.7104776242       -9.6847819648
 O        -3.7433751542        0.3668836937      -10.0063602170
 C        -2.3460277619        1.9151270232       -8.7712127265
 C        -2.4513691698        3.1224203197       -9.8483345138
 O        -1.5013862117        3.3881737743      -10.5509666743
 C        -3.7474287927        3.9048454435       -9.9228902959
 C        -3.7248630623        5.2865836594      -10.4888221051
 C        -5.0416440616        6.1499582601      -10.3508468818
 O        -5.8236116263        5.8373348480       -9.4919891601
 C        -5.3312691344        7.3158885308      -11.3850457841
 C        -6.8751252805        7.1736082116      -11.8273829389
 O        -7.1709812012        7.1298795576      -13.0671380235
 C        -8.0016098794        7.2014375357      -10.8083142274
 C        -9.4310362477        7.1589259564      -11.3847357881
 C        -9.4742419072        6.1580846623      -12.5458282396
 O        -9.3052796609        4.9740955447      -12.3498143878
 C        -9.9467212521        6.6456835035      -14.0952767779
 C        -9.4506754909        5.4850213961      -15.1114786975
 O        -9.8513889630        4.3183542600      -14.9688145795
 C        -8.3549481246        5.8207002515      -16.1238168661
 C        -7.9927956450        4.6054744380      -17.0101155644
 C        -7.0313183456        3.5437204456      -16.3888201843
 O        -6.2080408589        3.7744666843      -15.5014734050
 C        -7.1982886586        2.1185971980      -16.8610270853
 C        -7.7416860170        1.4576483275      -15.5392258122
 O        -8.9134000383        1.2694110962      -15.3224289273
 C        -6.6317241563        0.8336981496      -14.5709469824
 C        -6.9632259974        0.6741425134      -13.1320892753
 C        -7.9451580117       -0.7077089334      -13.0279216691
 O        -7.7523604552       -1.5849124792      -13.8575055371
 C        -9.1195497080       -0.9902769170      -12.0247377213
 C       -10.3493413887       -0.3584221901      -12.5820616965
 O       -10.6226971184        0.7966640250      -12.3338075813
 C       -11.2900294784       -1.0878135099      -13.6181534905
 C       -11.5254946375       -0.2837648846      -14.8431262465
 C       -12.4183899682        1.0180576600      -14.9342713647
 O       -12.0454103526        2.1351364121      -14.6548914090
 C       -13.6348129835        1.1033863140      -15.9451900453
 C       -12.7870030458        1.4302517008      -17.2860421685
 O       -11.7486414413        0.8957131319      -17.6044247336
 C       -13.3063721064        2.5292442130      -18.2720147779
 C       -12.4058553554        2.7106422917      -19.4837860997
 C       -11.7792111090        4.1384649259      -19.7503901907
 O       -11.7672386189        4.9358356042      -18.8346945782
 C       -10.9737858874        4.4471854645      -21.1495571933
 C        -9.4866317354        3.9116944085      -20.7624429918
 O        -9.0496056221        4.3222074327      -19.7278851193
 C        -8.7905134012        2.8499315255      -21.5404714723
 C       -11.5727513966        3.8577142747      -22.4275942185
 C       -10.7574263143        6.0041921294      -21.2974859766
 C       -14.3481270212       -0.1675662505      -16.3022705204
 C       -14.6422739254        2.1471883368      -15.5689034046
 C        -9.4157050911       -2.5289860806      -11.7923924038
 C        -8.9465302380       -0.3229788520      -10.5756961253
 C        -8.2599330787        1.8660850084      -17.9608687029
 C        -5.8140225402        1.5675235423      -17.3862915569
 C       -11.4693369805        6.5796749762      -13.9631420245
 C        -9.6550403124        8.2136601958      -14.4778842989
 C        -5.0495911820        8.6980787671      -10.6148256586
 C        -4.6067891754        7.4121413845      -12.7043503660
 C        -3.4433608759        2.0033449609       -7.6667709684
 C        -0.9725500018        1.8938455367       -8.0843189300
 C         0.5576779180       -4.6702612629      -11.0088726211
 C        -1.2766963066       -4.3409866951       -9.3520376511
 C         5.3048517673       -4.0949100243       -5.7454398401
 C         6.2756579768       -6.1662980825       -6.7180516293
 C         0.7918760323      -10.3206650801       -4.7505047067
 C        -0.1457798114       -9.5541917234       -2.3961669585
 C         4.0564772050       -9.0643308329        2.2708640211
 C         5.3309536792       -7.1889309386        1.1975656728
 C         9.6861130020      -11.9947065673       -1.6633226787
 C         8.6005624341      -10.7207857880       -3.6716718351
 H         5.6322774911      -13.1773745965       -1.0218377288
 H         7.2694751277      -12.8161360663       -0.2195168952
 H         7.1962467517      -14.1111648536       -1.3695025594
 H         9.8461583314       -9.5908127060        0.2454432502
 H         8.6298077895      -10.9878969694        0.5036382663
 H         7.6500342432       -8.1256919119        0.3743507850
 H         7.9318412003       -8.6527296272        1.9125375943
 H         3.7121563119      -10.8308280752        0.2405648669
 H         4.2688389710      -10.8927495863       -1.4152007669
 H         1.5752111446       -9.5098005342       -0.7876291898
 H         1.8326457803      -11.0505562284       -1.4182295827
 H         1.8703036803       -7.0071745828       -5.8249558893
 H         2.8143330994       -8.2920695842       -5.2787101835
 H         3.5320443606       -6.7483629854       -3.0990123885
 H         2.8639402600       -5.4009952301       -4.1129720462
 H         3.9514477572       -3.8038610477       -8.0500487287
 H         2.9275886908       -3.9893009597       -6.5372741545
 H         1.2124799421       -5.2247514361       -7.7119950243
 H         2.2731555525       -5.1583055456       -9.2293419610
 H        -0.6720750204       -1.1959837115       -8.7468277507
 H        -2.2002315238       -1.6330669241       -9.5019368457
 H        -1.7065159492       -0.1743035453      -11.3466841298
 H        -0.5517130527        0.6876852609      -10.3961221681
 H        -4.1510964073        4.0096354131       -8.9593997697
 H        -4.4869318434        3.2741265111      -10.5842463576
 H        -3.4715390311        5.3169116077      -11.5701305419
 H        -2.9988444935        5.8809209076      -10.0257225972
 H        -7.9372756144        7.9378376571      -10.0540641240
 H        -7.9454866713        6.3165040613      -10.2258250555
 H        -9.9326565882        8.0391856018      -11.5983933987
 H       -10.0981850393        6.6575453401      -10.6740290553
 H        -7.4888970834        6.1938343606      -15.4853361709
 H        -8.5175047982        6.6740378866      -16.7371327214
 H        -7.5972092177        4.9073537073      -18.0044902412
 H        -8.8915101485        4.0576859553      -17.1306645414
 H        -5.7713912095        1.5603408108      -14.5887871467
 H        -6.4117989030       -0.1404836687      -14.9058605360
 H        -7.4089643322        1.4982600266      -12.6671386806
 H        -6.1107338531        0.3457197402      -12.4906131019
 H       -12.2025629483       -1.3345470722      -13.0458455964
 H       -11.0339815465       -2.0855161484      -14.0253684083
 H       -11.8297704300       -0.9989839432      -15.5836092286
 H       -10.4692528293        0.0605793223      -15.1329050832
 H       -13.4965811314        3.4805823067      -17.7904310228
 H       -14.3438534402        2.1892238875      -18.5360683339
 H       -12.6970647618        2.2117059107      -20.3989289734
 H       -11.5246131948        2.0572848312      -19.2963341850
 H        -8.4822390165        2.0888636724      -20.8102615374
 H        -7.8864261702        3.2890020326      -22.0229741052
 H        -9.4533681132        2.4858290287      -22.2817994701
 H       -12.5302136236        4.3927400836      -22.6082310932
 H       -11.6680073781        2.8038580155      -22.2632591803
 H       -10.8620829260        3.9719796501      -23.2508613184
 H       -10.6123386995        6.3370473966      -20.3472697269
 H       -11.6232531854        6.5643513376      -21.6053532164
 H        -9.8278478168        6.2163132414      -21.8415785372
 H       -15.2736906482        0.0701266923      -16.7843050793
 H       -14.5279683680       -0.9043632596      -15.4780662688
 H       -13.8275698227       -0.8062106474      -16.9979154595
 H       -14.1184643912        3.0775256656      -15.3174329627
 H       -15.1419144560        1.8524560095      -14.6508722263
 H       -15.3883022541        2.3351325213      -16.3355485275
 H       -10.0257475159       -3.0514745132      -12.5418645121
 H       -10.0043362058       -2.8020305627      -10.9533485130
 H        -8.5664500412       -3.2381744636      -11.6330617313
 H        -9.8670943110       -0.6362817790      -10.0563824159
 H        -8.8261030264        0.7467883532      -10.5703318228
 H        -8.1885890960       -0.8159085453       -9.9683941878
 H        -8.1814817525        0.8460089696      -18.2745776541
 H        -7.9548541807        2.4504185321      -18.8480410070
 H        -9.3400132624        2.2471133017      -17.6629924847
 H        -5.6123877064        0.4823680948      -17.1448861891
 H        -4.9881361599        2.1382103797      -17.0044273163
 H        -5.7099096678        1.7123167128      -18.4737954781
 H       -11.6635849475        7.4676192788      -13.3471856753
 H       -11.8940889267        5.7358666349      -13.5036720852
 H       -11.8506538403        6.6992335084      -15.0188434025
 H        -8.6405060081        8.4754696590      -14.7312796399
 H       -10.1167556016        8.7842435166      -13.6793826607
 H       -10.2412882226        8.3429012818      -15.4069427631
 H        -5.5509580887        8.8590721921       -9.6296711693
 H        -5.3347610549        9.5315211344      -11.2144163474
 H        -4.0367329485        8.8416639655      -10.4265267101
 H        -4.8146364620        6.4774997098      -13.2814094754
 H        -3.5984318809        7.7222404738      -12.6551148469
 H        -5.1831205115        8.2314275166      -13.2193821602
 H        -4.3996203082        1.7583761039       -8.1683688503
 H        -3.3602770351        3.0301643238       -7.1578256817
 H        -3.4006791850        1.2296628502       -6.9295800336
 H        -0.7685377299        2.9411762496       -7.9054713190
 H        -0.2048408376        1.5899972766       -8.6959065426
 H        -0.9892388044        1.2787876771       -7.2366535657
 H         0.4950697731       -5.6814134343      -10.6533328352
 H         1.6657055567       -4.6286127678      -11.0302808191
 H         0.0936390958       -4.5208213154      -11.9808002404
 H        -1.0825412401       -5.1948649306       -8.7751901763
 H        -1.9324370183       -4.7386360273      -10.0861328611
 H        -1.8555814658       -3.6758988284       -8.6733465412
 H         5.9713487915       -4.1634469385       -4.9442600134
 H         4.4388482095       -3.4696338057       -5.5101027197
 H         5.8394270577       -3.6274891319       -6.5352465108
 H         6.5656352774       -5.7125675802       -7.6877394818
 H         6.0999868807       -7.2559730805       -6.7851723456
 H         7.1281526097       -5.9113791207       -6.0400861566
 H         1.5455061799      -10.0051030800       -5.5433979753
 H        -0.2441225645      -10.1021715760       -5.0555934885
 H         0.9181107784      -11.3268839212       -4.5406051736
 H         0.0637108899       -8.9530772168       -1.4823132627
 H        -0.3672275266      -10.5623019307       -2.0570145644
 H        -1.1259296406       -9.1031852265       -2.7902727635
 H         4.2632879659       -8.3730704485        3.1071715009
 H         4.1748435310      -10.1527112845        2.5661544178
 H         3.0948067037       -8.8816611847        1.7771322828
 H         5.4991989504       -7.0864331993        2.3080023785
 H         4.3244128950       -6.7849467083        1.2044792385
 H         6.0614856250       -6.6713700595        0.5666368516
 H         9.9625760319      -12.8338678398       -2.2904189172
 H         9.5163246186      -12.4940956719       -0.7317962252
 H        10.5510694446      -11.2950566022       -1.6306829839
 H         9.4753240095      -10.0695244792       -3.9097716677
 H         7.8255835463      -10.0752069948       -4.0421998962
 H         8.6270707976      -11.5792450923       -4.3253719152
 Na        5.5009770273       -9.2877162066       -3.2029503049
 Na      -10.0535038459        2.8449282114      -13.4810986138
