232

 C         6.8827481635      -12.9851840444       -1.1202946353
 C         7.0357976247      -11.9476009430       -2.1606463195
 O         6.0435591584      -11.6018965430       -2.7811257525
 C         8.3999275943      -11.2017869143       -2.2565206134
 C         8.1523153996       -9.9654780650       -1.3115212062
 O         7.5317200129       -8.9791180359       -1.6177473083
 C         8.6127696802       -9.9619412288        0.1161355613
 C         7.7685093909       -9.1377724340        1.0850031648
 C         6.3273968421       -9.6642647394        1.1108755179
 O         6.1786824786      -10.9026203735        1.1126875744
 C         5.0477354067       -8.7082564009        1.0819863412
 C         4.5055961677       -8.9771334685       -0.3661285803
 O         4.7418132654       -8.1701745512       -1.2734419092
 C         3.7584167464      -10.3013548995       -0.7614361290
 C         2.3122394206      -10.0320870659       -1.3197703464
 C         2.3743176507       -9.6624056759       -2.8196052196
 O         3.3955038469       -9.6153356200       -3.5322361517
 C         1.0479582824       -9.2936999973       -3.5646137015
 C         1.0914417508       -7.8101874204       -4.0387869010
 O         0.1939850606       -7.0106497574       -3.8073547465
 C         2.3986744355       -7.3659860313       -4.8499859409
 C         3.1970363392       -6.3422372166       -4.0486626296
 C         4.5459203946       -6.3760942865       -4.7545759322
 O         5.3933286543       -7.1934301133       -4.4173676122
 C         5.0064443475       -5.6204587654       -6.1331506667
 C         3.8965433912       -5.6875032319       -7.2119471362
 O         3.6163185030       -6.7185649041       -7.6874702319
 C         3.0139008012       -4.3781859297       -7.6377648435
 C         1.7438987197       -4.7206012266       -8.4026824437
 C         1.0126381475       -3.4294809688       -8.7382652697
 O         1.2759072024       -2.3276535916       -8.2499733290
 C         0.0405027196       -3.6622615936       -9.8714270523
 C        -0.3100043364       -2.3213508577      -10.4897907959
 O        -0.0244059136       -2.1196518352      -11.6381476308
 C        -1.0066458287       -1.3032739645       -9.5640095110
 C        -1.4663007344       -0.0461251160      -10.3826303074
 C        -2.6052101123        0.7698858577       -9.7956775891
 O        -3.8155243987        0.4461242957       -9.9172987505
 C        -2.3328392456        1.9488201427       -8.7814190950
 C        -2.4885266341        3.1914630380       -9.7676316380
 O        -1.5776598182        3.5066279565      -10.4372300490
 C        -3.9136736173        3.8793648386       -9.9971389587
 C        -3.7539287979        5.2417279183      -10.6482983528
 C        -4.9957187885        6.1411010031      -10.3701915260
 O        -5.6513300139        5.9195147927       -9.3714084497
 C        -5.4145895967        7.3788643107      -11.4782571166
 C        -6.9001101944        7.3311154403      -11.8263721088
 O        -7.1703123902        7.0064275816      -12.9783597729
 C        -7.9994303022        7.3261960944      -10.8200673251
 C        -9.3933989558        7.2910486571      -11.4287682150
 C        -9.4498841864        6.2279806075      -12.5481716505
 O        -9.3096710192        5.0412131839      -12.2363585618
 C       -10.0373846293        6.5910134881      -13.9977753137
 C        -9.4182929376        5.5656186937      -15.0118456389
 O        -9.9053194563        4.4438546671      -15.0535720635
 C        -8.3682447665        5.8363860906      -16.0996170575
 C        -8.1911398711        4.5350894248      -16.9581111888
 C        -7.0992730154        3.5268705543      -16.4587737681
 O        -6.2069807578        3.8546263512      -15.7218030498
 C        -7.2704468312        1.9363367961      -16.9128191921
 C        -7.7691708177        1.3285045729      -15.5880633275
 O        -8.9585885645        1.4708520254      -15.2425184743
 C        -6.7519594276        0.7706636302      -14.5555794377
 C        -7.2633935807        0.5877640701      -13.1605011040
 C        -7.9704024648       -0.8161928399      -13.0416690367
 O        -7.6118925692       -1.6227334359      -13.8366877460
 C        -9.1866687401       -0.9832794426      -12.0820418870
 C       -10.3731336070       -0.2174119776      -12.6496305985
 O       -10.5873043006        0.9630405196      -12.3701673083
 C       -11.3758455513       -1.0061466316      -13.5692549597
 C       -11.5794984313       -0.3106641739      -14.9644984747
 C       -12.3782781801        1.0079850431      -15.0318148393
 O       -12.0348534819        1.9909407972      -14.4144574926
 C       -13.5980519740        1.1458036065      -16.0596067609
 C       -12.8067449320        1.5515823433      -17.3223958761
 O       -11.8042918917        0.9219210429      -17.4365833700
 C       -13.3154401803        2.5979181255      -18.3618822057
 C       -12.4405453669        2.7437497286      -19.5307698095
 C       -11.7810535394        4.1624980075      -19.7229639939
 O       -11.8564777698        4.9558389787      -18.8373549754
 C       -10.9133053831        4.5000886943      -21.0241598857
 C        -9.5183969906        3.8600401603      -20.7256608329
 O        -8.9043804696        4.3862581081      -19.8198813663
 C        -8.7974095447        2.7260203686      -21.5275230926
 C       -11.4867419501        3.9838859523      -22.4005313768
 C       -10.6610795098        6.0719890253      -21.2751556721
 C       -14.2110954937       -0.3210206578      -16.3915366012
 C       -14.7109330946        2.1223641653      -15.5602146485
 C        -9.2448383601       -2.5017691618      -11.8320434404
 C        -8.8521121260       -0.3613316647      -10.6641944630
 C        -8.2594620382        1.7249613258      -18.0738051997
 C        -5.9056808988        1.3711419440      -17.3863804491
 C       -11.5612284466        6.4500770270      -13.8675454868
 C        -9.4285452207        7.9764845646      -14.3158846152
 C        -5.1203632772        8.6639834495      -10.6283377462
 C        -4.5940836699        7.1752103111      -12.7468073992
 C        -3.4871418800        1.9164996392       -7.7015049718
 C        -1.0107929080        1.7539491654       -8.0057168425
 C         0.5343466048       -4.6194613791      -11.0090672591
 C        -1.2057364637       -4.4228507553       -9.3580158912
 C         5.4846480567       -4.1824877708       -5.8306774547
 C         6.1528160028       -6.3343579363       -6.8416562631
 C         0.8707492066      -10.2102473330       -4.7434383546
 C        -0.0844113753       -9.5624214281       -2.6222884393
 C         4.0378373784       -9.2770677552        2.0553887662
 C         5.4938723716       -7.2611691985        1.3598778136
 C         9.6612036444      -11.9726382647       -1.8183379908
 C         8.6235506975      -10.7062589567       -3.6688624939
 H         5.8596645696      -13.1582090347       -0.8426873544
 H         7.6573634052      -12.7456615155       -0.3089741562
 H         7.3792972365      -13.8923529279       -1.5715515147
 H         9.6141017625       -9.3810582056        0.0604223642
 H         8.8576058907      -11.0090024882        0.4823828362
 H         8.0732427392       -8.0872324899        0.9139445198
 H         8.2246949629       -9.3174016587        2.0555317800
 H         3.6608664281      -10.8422487221        0.1845292310
 H         4.1809583092      -11.0028156517       -1.5290456094
 H         1.8152998336       -9.1733863402       -0.9021755553
 H         1.6046312688      -10.7998160392       -1.1010075834
 H         2.0389043824       -7.0527881584       -5.8177412615
 H         2.9595011968       -8.2450355773       -5.1677515212
 H         3.3669002423       -6.7081351921       -3.0197768508
 H         2.7850803027       -5.2855159122       -4.0960496916
 H         3.6458199654       -3.8945671625       -8.3835754437
 H         2.6714567568       -3.6463451876       -6.8803240551
 H         1.1075951268       -5.2599492698       -7.6861184424
 H         1.9945268198       -5.2894746290       -9.3194598976
 H        -0.3604853813       -0.9397501820       -8.8024762464
 H        -1.9474868629       -1.7021564565       -9.0635298452
 H        -1.8126168323       -0.4155599762      -11.4163162093
 H        -0.5408127114        0.5469515815      -10.5036576303
 H        -4.4695294172        4.0089596928       -9.0369464858
 H        -4.5584613612        3.3198435061      -10.7283118335
 H        -3.5648358455        5.1589914085      -11.6934888473
 H        -2.8696137378        5.7907976052      -10.2196009901
 H        -7.9794550437        8.2404968863      -10.1833234149
 H        -7.7970710925        6.6073780064      -10.0511900095
 H        -9.5106978539        8.2224709687      -11.9446757143
 H       -10.3394010630        7.1996700786      -10.7954291132
 H        -7.3836948336        6.2332769824      -15.7885352357
 H        -8.6813990236        6.5905185080      -16.7874765675
 H        -7.8555880459        4.9483621195      -18.0041675295
 H        -9.1050239120        3.9820931952      -17.0297667146
 H        -5.9356283833        1.5138688778      -14.4689499096
 H        -6.4494891534       -0.2077540974      -14.8671531272
 H        -8.0821140220        1.3135027399      -12.8151812228
 H        -6.4561764656        0.5829487294      -12.3573263206
 H       -12.3133868186       -1.1442689913      -12.9968438855
 H       -11.0945532595       -2.0338549285      -13.8398107758
 H       -11.9118140584       -1.0730028564      -15.6258186373
 H       -10.5588820671       -0.0255826904      -15.2789039661
 H       -13.5745386500        3.5699279575      -17.8411153408
 H       -14.3007299908        2.2013582495      -18.5999371140
 H       -12.8878547207        2.4948046462      -20.4581982950
 H       -11.7093138626        1.8672497411      -19.4794875880
 H        -8.7424737713        1.9972679511      -20.7603978821
 H        -7.7242316397        3.0362805247      -21.7788805149
 H        -9.3431050020        2.3112847177      -22.3549160976
 H       -12.5444039075        4.3804106825      -22.3910987987
 H       -11.4723505300        2.8849576198      -22.3383869753
 H       -10.8977775188        4.2959696097      -23.3390642472
 H       -10.9817298920        6.6929557853      -20.4554557829
 H       -11.3715929597        6.3708365310      -21.9888488659
 H        -9.6276221198        6.2890643118      -21.5211973527
 H       -15.1580083211       -0.1089120455      -16.9297654616
 H       -14.3782612259       -0.8586055641      -15.5367621485
 H       -13.6604751886       -1.0763057027      -16.9789889987
 H       -14.2673671013        3.1396899196      -15.3435592681
 H       -15.0130903551        1.8026090987      -14.5891387001
 H       -15.5594292449        2.1856671698      -16.1711016134
 H        -9.5467025471       -3.0273441020      -12.7085154394
 H        -9.9828823059       -2.9368621527      -11.1501478509
 H        -8.3317657421       -3.0158009105      -11.4850382699
 H        -9.5437393280       -0.7872981125      -10.0378949826
 H        -8.9503304249        0.7628604607      -10.6305890966
 H        -7.9054187565       -0.7153737269      -10.2822700633
 H        -7.9986584418        0.8729120195      -18.7725764145
 H        -8.3595736000        2.6344416795      -18.6866688358
 H        -9.1744397256        1.6227039327      -17.6167268852
 H        -5.8719453355        0.3415536645      -17.0148945074
 H        -4.9720358567        1.8869322390      -16.9402761508
 H        -5.7325206225        1.3023589459      -18.4514945593
 H       -11.9601332679        7.0920211396      -13.0481516057
 H       -11.8452694360        5.4216533408      -13.7733547415
 H       -11.8627128346        6.7852328978      -14.8604492414
 H        -8.3592598515        7.8978214462      -14.2027866982
 H        -9.9109804349        8.7425041914      -13.6307749759
 H        -9.5538576991        8.1717549704      -15.3828276330
 H        -5.8385552443        8.9475748474       -9.8885821430
 H        -4.9788292425        9.5799945144      -11.2485658495
 H        -4.1987993754        8.5829818018      -10.0750618987
 H        -4.9591063837        6.2675088196      -13.1901732196
 H        -3.5598664832        7.1148641487      -12.4134120925
 H        -4.6465345348        8.0072691262      -13.4547426603
 H        -4.3590016006        1.5739357539       -8.1490138539
 H        -3.5561900706        2.8781767974       -7.1977286384
 H        -3.3168103284        1.1700033846       -6.8825240413
 H        -0.7842790638        2.6988470076       -7.5787570667
 H        -0.2072993681        1.4946286135       -8.6170299720
 H        -1.1137710525        0.9823739486       -7.3022703823
 H         0.7225689021       -5.6351362070      -10.6558315615
 H         1.5624243875       -4.3792696382      -11.2982372907
 H        -0.1268870361       -4.4705048024      -11.7978932555
 H        -0.9885397271       -5.3376018188       -8.8529927365
 H        -1.8081437244       -4.7567812548      -10.1801844546
 H        -1.9064111586       -3.8630632858       -8.6349071801
 H         6.3060843392       -4.2282633071       -5.1608334049
 H         4.5941075545       -3.6416963767       -5.4395818905
 H         5.8088132543       -3.6799571080       -6.7186930550
 H         6.3020439121       -5.8764923580       -7.8330050524
 H         5.9166658321       -7.3927567106       -6.9014204710
 H         7.0715503148       -6.1215916117       -6.3605161206
 H         1.7391087162       -9.9687966638       -5.3678456005
 H        -0.0902044344      -10.0180195934       -5.2090378803
 H         0.8764027847      -11.2499698514       -4.4583084616
 H        -0.1499260554       -8.9245421482       -1.6782684494
 H        -0.0818875589      -10.5824196122       -2.2773063569
 H        -1.0165073331       -9.3445717479       -3.1481325004
 H         4.0759094005       -8.6806878743        2.9511331172
 H         4.3532604222      -10.2247106615        2.2677355085
 H         3.0192506679       -9.2272605778        1.5485134706
 H         5.8307251867       -7.1404642269        2.4247671156
 H         4.6068044925       -6.5535377521        1.3105007163
 H         6.2959340789       -7.0994633077        0.6489010001
 H         9.7492690590      -12.9697265958       -2.3479626116
 H         9.5784814589      -12.3256125369       -0.8009613385
 H        10.5402825757      -11.3631279800       -1.9767617776
 H         9.3099942337       -9.9586181859       -3.8270519991
 H         7.7100731059      -10.1784416834       -3.9901116005
 H         8.7406149298      -11.5061738382       -4.3973282085
 Na        5.6988340156       -9.2673357749       -3.1897648241
 Na      -10.1677475041        2.9535849970      -13.3157358288
