232

 C         7.1129688279      -13.1043752083       -1.1418656121
 C         7.0615540479      -11.8784759872       -2.0698079150
 O         6.0055196828      -11.6321206392       -2.6507072729
 C         8.4061107612      -11.0880158779       -2.2450457925
 C         8.2348420603       -9.9635542687       -1.2517798072
 O         7.5643257816       -8.9648786911       -1.5408936567
 C         8.7503858996      -10.0684635359        0.1405678231
 C         7.8183273613       -9.3373592069        1.2208565602
 C         6.4060953511       -9.9288463672        1.2589982255
 O         6.3067293755      -11.1328583033        1.1759715908
 C         5.2625237972       -8.8512031700        1.0893008982
 C         4.7409865148       -8.9472748944       -0.4200244594
 O         5.0495427380       -8.0525347141       -1.1455105974
 C         3.9204309275      -10.1663956837       -0.8663757608
 C         2.5181429265       -9.7316177218       -1.3389540910
 C         2.4188611865       -9.4184137493       -2.9304445675
 O         3.4492787127       -9.4474367194       -3.5551738110
 C         1.0751505470       -9.1412152009       -3.6448665912
 C         1.0364100474       -7.6312240978       -4.1615265488
 O         0.1485993947       -6.9398318359       -3.7854053574
 C         2.2351158423       -7.1417853828       -5.0328180558
 C         3.2755850950       -6.1319626907       -4.3529668698
 C         4.7499049701       -6.4158920714       -4.9221697753
 O         5.5445846735       -7.1695998030       -4.4337321999
 C         5.1103582915       -5.7407329387       -6.2282552584
 C         3.8581578590       -5.6633617190       -7.1311651285
 O         3.4818687263       -6.7687257903       -7.6053362607
 C         3.1913772984       -4.4741991932       -7.5875436142
 C         1.7502207760       -4.9052173158       -8.1100424016
 C         0.9546018226       -3.7012440989       -8.6551183447
 O         0.9929664005       -2.6805607121       -8.0293823106
 C        -0.0401676610       -3.7770115456       -9.8957150694
 C        -0.4241790501       -2.3211226790      -10.4867565172
 O        -0.2829984381       -2.0614374963      -11.6661759582
 C        -0.8933149302       -1.1954816013       -9.5721803356
 C        -1.6286626053       -0.0144819174      -10.4578953215
 C        -2.8400411211        0.7333576555       -9.8424136819
 O        -3.9646300312        0.3988280220      -10.0415499992
 C        -2.4979839451        1.8596990676       -8.7998787518
 C        -2.5785517736        3.1654871894       -9.6760482434
 O        -1.5219726686        3.7122395515      -10.0294452579
 C        -3.9655606536        3.7252767987       -9.8092107571
 C        -3.9858162368        4.9972652680      -10.7936328125
 C        -4.9308276709        6.1309585682      -10.3215142910
 O        -5.5081515851        6.1363482356       -9.2556811719
 C        -5.2719346831        7.2431695130      -11.4588431017
 C        -6.8155830474        7.0132941149      -11.7811013021
 O        -7.1691844199        6.5031280020      -12.8642261486
 C        -7.9054036989        7.5002575141      -10.7709456510
 C        -9.2541523631        7.3906303012      -11.4163563833
 C        -9.3711813037        6.2026720401      -12.4319246845
 O        -9.4174387247        5.0969636872      -11.9765976966
 C        -9.8601921441        6.5420651243      -13.9773334766
 C        -9.5017386631        5.3378096004      -14.9623179710
 O       -10.1897768912        4.3039850185      -14.9917849355
 C        -8.3882642099        5.5479074704      -15.9447339738
 C        -8.3156154146        4.4561180925      -17.0720217043
 C        -7.1569690151        3.4866335971      -16.7852379086
 O        -6.1525067226        3.8073341091      -16.1525768985
 C        -7.4354143438        2.0022448078      -16.9028476757
 C        -7.9160141655        1.6256255241      -15.4776875215
 O        -9.0426420479        1.8116984502      -15.1350857599
 C        -6.8779951595        0.9788107605      -14.5696679962
 C        -7.5039483903        0.6359798259      -13.1884033534
 C        -8.0099559767       -0.8062098016      -13.1617779034
 O        -7.5583182535       -1.7824428346      -13.7452876641
 C        -9.1921436732       -1.0947280171      -12.1208272017
 C       -10.3586427614       -0.2579160409      -12.6262289008
 O       -10.3986333250        0.9093141608      -12.2610962540
 C       -11.4507331417       -0.8914912064      -13.4132333886
 C       -11.4522382431       -0.2268490226      -14.8694879090
 C       -12.4144523637        0.9664094765      -15.0228911429
 O       -12.4289002930        1.8166741609      -14.1649665235
 C       -13.5124777981        1.0893344830      -16.2725217787
 C       -12.6672105352        1.6271839247      -17.5116464486
 O       -11.5791648310        1.1167281669      -17.8256744560
 C       -13.3344277698        2.7551075497      -18.3144657831
 C       -12.5352133211        2.8104222230      -19.6678791280
 C       -11.7852143681        4.1613119903      -19.7360897038
 O       -12.0128058316        5.0457951791      -18.9476034522
 C       -10.7868031616        4.5540761895      -20.9487536261
 C        -9.3394977595        3.9450789912      -20.8214776389
 O        -8.5689155539        4.4178216878      -20.0253510775
 C        -9.0660110775        2.5917120888      -21.4729186884
 C       -11.5061638439        3.9422212109      -22.1631500643
 C       -10.6674918304        6.1058079764      -20.9961565936
 C       -14.2323956357       -0.2351739388      -16.4596550626
 C       -14.5966580531        2.0221875954      -15.6521672445
 C        -9.4778545225       -2.5548553505      -11.8616684996
 C        -8.5705834052       -0.3788833292      -10.7946349600
 C        -8.4476198760        1.5392102657      -17.9835923291
 C        -6.0188772727        1.3209341064      -17.2064354122
 C       -11.4490763731        6.5472029245      -13.8317372660
 C        -9.6269761196        8.0210135288      -14.5243402888
 C        -4.9493603031        8.5786141599      -10.7842176227
 C        -4.4308868348        7.2030568981      -12.7618433286
 C        -3.5939636035        1.9349974003       -7.6890267042
 C        -1.0882525333        1.9599766989       -8.1519851970
 C         0.5694045917       -4.5824868873      -11.0336809436
 C        -1.2955724274       -4.4423769915       -9.2765132591
 C         5.5704211236       -4.3802669351       -5.8602339566
 C         6.2550056324       -6.6122965784       -6.9330520644
 C         1.0863847059       -9.9917274070       -4.9126436806
 C        -0.3118243852       -9.3834124965       -2.9306758726
 C         4.0712349553       -9.3628029472        2.0461528599
 C         5.3897018703       -7.3288329404        1.4420132758
 C         9.6379252801      -12.0697170400       -2.0649595634
 C         8.4637480075      -10.5181796328       -3.7226340743
 H         6.0330926118      -13.2986126222       -1.0854883140
 H         7.5129857125      -12.9535180565       -0.1912655306
 H         7.6400933184      -13.9180494213       -1.5555616324
 H         9.7639560714       -9.8756288514        0.1861010099
 H         8.6801449637      -11.0879352579        0.3908775032
 H         7.8285514945       -8.2518103802        1.1665648761
 H         8.3380039468       -9.5453051228        2.2027553749
 H         3.9054787790      -11.0447993613       -0.2070616422
 H         4.4660918228      -10.3536787828       -1.8148333734
 H         2.0156714654       -8.9127270643       -0.7533588581
 H         1.7325988925      -10.5314588699       -1.0973690731
 H         1.7321882507       -6.7355846747       -5.9264816842
 H         2.6342694274       -8.0366036481       -5.4562444988
 H         3.2229686002       -6.1922967505       -3.2519324038
 H         2.8897460790       -5.1760262767       -4.6470200895
 H         3.8480386602       -3.9988918792       -8.3620418952
 H         2.9557041702       -3.8510869110       -6.7481507890
 H         1.2231519338       -5.3420618154       -7.2334850363
 H         1.9114882578       -5.5465499290       -8.9347191316
 H        -0.0061706306       -0.6476651638       -9.1035590772
 H        -1.5361230225       -1.5337269600       -8.7796440409
 H        -2.0599271889       -0.4233644394      -11.3403543774
 H        -0.7697872421        0.6457316916      -10.7898858622
 H        -4.1769351513        3.9660761574       -8.7840948613
 H        -4.6790301088        2.9749392040      -10.1188132876
 H        -4.3732434538        4.7127313143      -11.8406072277
 H        -2.9404668310        5.2811265085      -10.9897144765
 H        -7.7114745422        8.5393693684      -10.4405099975
 H        -7.8892026543        7.0519605611       -9.7179644365
 H        -9.6620127606        8.2784945006      -11.9384404587
 H       -10.0145722832        7.0707181166      -10.7232531592
 H        -7.4288498274        5.5041561581      -15.4028775158
 H        -8.3786292575        6.5798760975      -16.4023565520
 H        -8.1414323736        4.9257500571      -17.9860878993
 H        -9.2437750500        3.8387659265      -17.0842415522
 H        -6.2422609305        1.8200081600      -14.3261351699
 H        -6.3311319727        0.0977431530      -15.0012779079
 H        -8.3173814443        1.2062666218      -12.8731890681
 H        -6.7791040020        0.6318326199      -12.3954406624
 H       -12.4265846048       -0.6727336614      -12.9781516453
 H       -11.3338390198       -1.9770104636      -13.5022183914
 H       -11.5817118955       -1.0248529365      -15.6095117001
 H       -10.4759085504        0.2131172503      -15.0672685300
 H       -13.3707977131        3.6492602029      -17.7211205688
 H       -14.3946083285        2.4305964826      -18.4088652752
 H       -13.1721284124        2.6346994340      -20.5945634901
 H       -11.8534786697        1.9793960425      -19.7168848729
 H        -9.6917422760        1.7322672619      -21.1024620048
 H        -8.0218345477        2.4176949257      -21.4036618389
 H        -9.3935018606        2.7424310248      -22.4921205815
 H       -12.4614336346        4.4539453284      -22.3064658282
 H       -11.6372951387        2.8436404407      -22.0665799968
 H       -10.8670596757        4.1712262148      -22.9913535534
 H       -11.2726809700        6.5274806880      -20.1881605843
 H       -11.0900940597        6.6844978921      -21.8702502788
 H        -9.6126224667        6.3465498264      -20.7564679700
 H       -15.0931228750       -0.2279393979      -17.1060839106
 H       -14.3512720032       -0.7164506894      -15.4189402810
 H       -13.5342291973       -0.9772100754      -16.7964137245
 H       -14.2302752015        2.9537514803      -15.3342482161
 H       -14.9801508811        1.5511776860      -14.7335528019
 H       -15.4792087423        2.0880978234      -16.3300361191
 H        -9.2491697010       -3.3055086247      -12.6233049759
 H       -10.4889111610       -2.8192988043      -11.6922651959
 H        -9.0297345155       -2.9421362394      -10.9765507748
 H        -9.1245335789       -0.7210424239       -9.8370636774
 H        -8.7024445493        0.6599236555      -10.8824025034
 H        -7.5100025352       -0.6700803468      -10.7285122417
 H        -8.1190398566        0.6387678140      -18.3860678621
 H        -8.7770898876        2.1932838604      -18.7616133187
 H        -9.3844878734        1.2567843456      -17.3572930654
 H        -6.0682309974        0.2350330682      -17.4128062682
 H        -5.4093914945        1.4627987456      -16.3895948797
 H        -5.4777829851        1.7006299591      -18.0889693785
 H       -11.6872692266        7.0969465241      -12.9116332628
 H       -11.7484853976        5.4924968982      -13.8070856536
 H       -11.9377603149        7.1148320797      -14.6689286799
 H        -8.5791314878        8.3093778326      -14.3880196456
 H       -10.2839897230        8.6204447398      -13.9856512922
 H        -9.8083327186        7.9916200915      -15.5997635689
 H        -5.6169652933        8.8912426982       -9.9331886618
 H        -4.8551686457        9.4470105725      -11.4038821733
 H        -3.9783920858        8.4746115884      -10.2699889254
 H        -4.5514647638        6.2384092574      -13.2768937752
 H        -3.4095313353        7.4054207260      -12.5045539869
 H        -4.6739693090        8.0319510075      -13.4148845127
 H        -4.6503628994        1.9671318185       -8.0989579929
 H        -3.4015003236        2.7933873035       -7.0250518826
 H        -3.4905901428        1.1317881524       -7.0339334552
 H        -1.1157614760        2.5228623825       -7.1607079418
 H        -0.3820056593        2.4529792166       -8.8712735203
 H        -0.6606290034        0.9184519064       -8.0092783998
 H         1.0939762180       -5.4489366830      -10.7509047572
 H         1.3678684710       -3.9833841621      -11.4660112149
 H        -0.2140483761       -4.5884541956      -11.8137606913
 H        -1.2245934245       -5.5228416012       -9.0141481734
 H        -2.2593885303       -4.3477020248       -9.8204511273
 H        -1.5180825925       -3.9562529170       -8.3530368096
 H         6.6243452014       -4.4808212133       -5.5128263694
 H         4.9232863435       -3.9300329787       -5.1095166612
 H         5.5667159002       -3.7570797803       -6.7829272928
 H         6.7467343047       -6.0666021610       -7.6814628834
 H         5.7796440532       -7.4898428571       -7.2875686310
 H         7.0363762249       -6.8464310672       -6.2063905374
 H         2.1169614190      -10.0665502313       -5.3106896774
 H         0.3350200604       -9.6162280929       -5.6099436829
 H         0.6486576593      -10.9446160819       -4.6683846063
 H        -0.5094245744       -8.6903122989       -2.1778166207
 H        -0.3352244985      -10.3094766454       -2.3935543559
 H        -1.1367409429       -9.1858824020       -3.5995355974
 H         4.4349216220       -9.1075158970        3.0300436405
 H         4.1406652237      -10.4773912380        1.9336716586
 H         3.1992003920       -8.8361895263        1.8500105343
 H         6.0859954809       -7.2368061453        2.2726948702
 H         4.4041520995       -7.0250862391        1.6913526975
 H         5.8314504264       -6.8111181077        0.6047402236
 H         9.4849424212      -12.9313580058       -2.6691843973
 H         9.6349818862      -12.4542970255       -1.0301441541
 H        10.5948512217      -11.5430482502       -2.2586720738
 H         9.2029899280       -9.6643278707       -3.8145206902
 H         7.6146267711      -10.0757144023       -4.1970467908
 H         8.6940187480      -11.3166405066       -4.4039235056
 Na        5.8520813746       -9.0566903774       -3.2135015329
 Na      -10.3007620578        3.1468373607      -13.2121614555
