232

 C         7.0954242786      -13.2241545826       -1.2595531275
 C         7.0601976776      -11.9358721002       -2.1189554532
 O         6.0842659589      -11.3946088225       -2.5940857067
 C         8.4493106335      -11.1828846569       -2.2936040619
 C         8.2766007148       -9.9950355954       -1.1999274102
 O         7.6764958676       -8.9597550153       -1.5257545309
 C         8.8468431613      -10.1794861804        0.2670308717
 C         7.9019862675       -9.3637203451        1.1642879480
 C         6.4633821904       -9.9557625562        1.1202221926
 O         6.2774948065      -11.1891332151        1.2400199758
 C         5.1770650996       -8.9447179957        1.1186749193
 C         4.7500822910       -8.9366699597       -0.4596171028
 O         5.2056986136       -8.0058998011       -1.0846011064
 C         3.8844725009      -10.0639812283       -0.9761520803
 C         2.4585048225       -9.5929840986       -1.4308721697
 C         2.3919216046       -9.3541588618       -2.9119712227
 O         3.4645563120       -9.3336592934       -3.5547942708
 C         1.1732746060       -9.0927805478       -3.7180212875
 C         1.1615184900       -7.4994420293       -4.0909901799
 O         0.2058525612       -6.8276590713       -3.7828844063
 C         2.2008644826       -7.0215585413       -5.1583973656
 C         3.3348315535       -6.2374755382       -4.4318205996
 C         4.6976115912       -6.5876495710       -5.0162453609
 O         5.5252201898       -7.1499469826       -4.3301477555
 C         5.2340705395       -5.7959057153       -6.3381564762
 C         3.8942140863       -5.9271176000       -7.3040113236
 O         3.5049687415       -7.0011903637       -7.5234722499
 C         3.0891231843       -4.5311385923       -7.5763184873
 C         1.6690650994       -4.8325600860       -8.1796383303
 C         0.9018014914       -3.5680687324       -8.6231008735
 O         0.7998695714       -2.5884730171       -7.8869161035
 C        -0.0157280299       -3.6834177623       -9.8657056353
 C        -0.3883528878       -2.2774655415      -10.4489891512
 O        -0.4240549677       -2.1821794340      -11.6415683572
 C        -0.9821988603       -1.1013736895       -9.5246134853
 C        -1.6446778958       -0.0719259319      -10.4377367284
 C        -2.8294472977        0.5794018226       -9.7442984507
 O        -4.0015634091        0.4590541316      -10.0805941995
 C        -2.4999903206        1.8528700825       -8.7982356983
 C        -2.6567907687        3.2717527696       -9.5508638204
 O        -1.6761515997        3.8215520591       -9.9041239771
 C        -4.0670764794        3.8650698105       -9.7310742529
 C        -4.1621958556        4.8391615940      -10.8829544950
 C        -4.9767835267        6.0185899426      -10.4109188460
 O        -5.3510812316        6.1566670111       -9.2579913637
 C        -5.2135456043        7.2389133333      -11.4286391285
 C        -6.6693281488        7.0673750425      -11.8515568585
 O        -7.0590237829        6.2224170200      -12.7254042729
 C        -7.7335814602        7.4677870735      -10.9204692095
 C        -9.1980988407        7.4009655893      -11.4022519809
 C        -9.4394981326        6.2639470723      -12.4514350681
 O        -9.5229197514        5.0901435846      -12.1109047836
 C       -10.0126072828        6.4864106526      -13.9154325794
 C        -9.5774636532        5.4006577329      -14.9426303186
 O       -10.2478576252        4.3377353316      -15.0013542529
 C        -8.3193993181        5.5011984351      -15.8744032969
 C        -8.3452248909        4.4466075527      -17.0474570142
 C        -7.1499659991        3.4467205593      -16.8166417070
 O        -6.0900152352        3.9047647020      -16.4103755503
 C        -7.4499019922        1.9095409871      -16.9045273160
 C        -7.9947579151        1.7261244724      -15.4336366231
 O        -9.1442346394        2.0004180666      -15.1574136352
 C        -6.9441667404        1.0785206427      -14.4974263131
 C        -7.3808314201        0.5947350126      -13.0738754495
 C        -7.9510035254       -0.9169291231      -13.1222015875
 O        -7.4741485100       -1.7111832193      -13.8824679959
 C        -9.1368130646       -1.1128357451      -11.9938930687
 C       -10.3682119849       -0.2182121976      -12.3869748264
 O       -10.3731400429        0.9815558866      -12.2399925667
 C       -11.4461515294       -0.8429680861      -13.4397185088
 C       -11.4190236721       -0.1528705618      -14.7846449279
 C       -12.4327867397        0.9647998536      -14.9472591134
 O       -12.6007379402        1.8419154124      -14.1170593144
 C       -13.3466917530        1.0203954798      -16.1624930786
 C       -12.6577137941        1.5769890239      -17.4803501865
 O       -11.6379886390        1.1204310723      -17.8546442523
 C       -13.2612109444        2.7003367254      -18.3404362368
 C       -12.5988918874        2.9445932014      -19.6672355661
 C       -11.8227738605        4.2515804100      -19.6616060250
 O       -12.0892626529        5.0813667735      -18.8343324352
 C       -10.8203196816        4.5660304448      -20.9021975578
 C        -9.3838189236        3.8282987341      -20.7610131018
 O        -8.4775394733        4.4395603748      -20.2715551630
 C        -9.1448498526        2.5058895863      -21.4573163926
 C       -11.5160027250        4.0502937063      -22.2310949454
 C       -10.6327367210        6.1265256623      -20.9837411405
 C       -14.0954328915       -0.2616635351      -16.6033947393
 C       -14.4647218843        2.1333158616      -15.8596506004
 C        -9.6890285773       -2.5584970970      -11.8123102228
 C        -8.5535770876       -0.5896433013      -10.6877811560
 C        -8.5524984983        1.4923908333      -17.9103560499
 C        -6.0805536486        1.3123390440      -17.3191281536
 C       -11.5675226788        6.5410920889      -13.7055779315
 C        -9.5844652668        7.8477575140      -14.5495363823
 C        -4.9013704576        8.6078435785      -10.7882862043
 C        -4.4529044880        7.1565584194      -12.7708795795
 C        -3.5383840190        1.8464844830       -7.6720333178
 C        -1.1155041318        1.8305771674       -8.1751348543
 C         0.5044707320       -4.6926930118      -11.0258443758
 C        -1.3056295333       -4.3825395307       -9.4197875450
 C         5.7473864769       -4.3756173498       -5.9311648929
 C         6.3802712152       -6.5759054775       -6.9965275884
 C         1.1581689114       -9.9354096375       -5.0467026251
 C        -0.0963764897       -9.3443876864       -2.9647872517
 C         4.0995052948       -9.4546545808        2.1870799031
 C         5.4996618934       -7.5013322266        1.5095481735
 C         9.6976667293      -11.9753246819       -2.1038062644
 C         8.3822901123      -10.5044143746       -3.6565523524
 H         6.1359166484      -13.6163819924       -1.1542159094
 H         7.3364196831      -12.7729107573       -0.2545519990
 H         7.8767988812      -13.9150751940       -1.4559895319
 H         9.8735111160       -9.7853615816        0.1671271001
 H         9.0311785421      -11.1793538248        0.6410707681
 H         7.9115873968       -8.3872205146        0.7654096738
 H         8.2938155667       -9.2437958066        2.1660970677
 H         3.6972633681      -10.7022172268       -0.1796004059
 H         4.5343106512      -10.5184102555       -1.7756114195
 H         2.0533477245       -8.7176470663       -0.8602743043
 H         1.6627996900      -10.2812016701       -1.1541618805
 H         1.6218967466       -6.4849239942       -5.9663597554
 H         2.4518394093       -7.9249674816       -5.6729286897
 H         3.3059573924       -6.4200106051       -3.3654628206
 H         3.0516983685       -5.2028348658       -4.5175333968
 H         3.6485280585       -3.9160879706       -8.3735466705
 H         2.9187475448       -4.0126437000       -6.7008023903
 H         0.9006421449       -5.2812038010       -7.4661520549
 H         1.8965265108       -5.4035259350       -9.0625331156
 H        -0.2071302301       -0.6394023850       -8.9598258180
 H        -1.7450340527       -1.5235951655       -8.8235975229
 H        -1.9041023560       -0.4685356421      -11.3485685953
 H        -0.9527055329        0.7056160819      -10.6625490946
 H        -4.2814489263        4.2814676005       -8.8089623919
 H        -4.8542565357        3.0554396181       -9.8767953343
 H        -4.5757477407        4.4043997341      -11.8248096076
 H        -3.1659094391        5.1040068547      -11.1561854205
 H        -7.5562555760        8.4525037364      -10.5377680875
 H        -7.5380071353        6.9559290717       -9.9987994819
 H        -9.5173890469        8.2293502637      -11.9023437617
 H        -9.8819095216        7.1366662609      -10.6031750490
 H        -7.3644182911        5.3691361766      -15.2246172633
 H        -8.2652138215        6.4938949216      -16.2937290756
 H        -8.1439087688        4.9332545390      -18.0440991877
 H        -9.2459057098        3.9790292122      -16.9968198963
 H        -6.1568517311        1.8684811257      -14.2386272145
 H        -6.5578272854        0.2409892576      -15.0237262060
 H        -8.0650905559        1.1636994073      -12.5534438567
 H        -6.5137571637        0.4885881774      -12.4603132702
 H       -12.4881882399       -0.6589165535      -13.1426967809
 H       -11.2790960581       -1.9251447133      -13.5802575120
 H       -11.4141511181       -0.8557296838      -15.5934938610
 H       -10.3910884397        0.3935059281      -14.8529632012
 H       -13.2794780462        3.5945351311      -17.7519121860
 H       -14.3182621044        2.4769655964      -18.5642624023
 H       -13.4238819033        3.0984557051      -20.3576285500
 H       -12.0409146489        2.0993305941      -20.1239095380
 H       -10.0321293604        1.9047483634      -21.5339429487
 H        -8.2874422613        1.9866065727      -20.9027112454
 H        -8.8903876623        2.7379125867      -22.4558063653
 H       -12.4197075547        4.5985526263      -22.4733580009
 H       -11.7564637982        3.0377669724      -22.2161575320
 H       -10.7883555296        4.3291315086      -22.9860538458
 H       -11.3229594774        6.6521135570      -20.3806697603
 H       -10.8096406077        6.5719762249      -21.9868641340
 H        -9.5717554942        6.3364722670      -20.6302079709
 H       -14.7600657077        0.0658933546      -17.4166910826
 H       -14.5457750838       -0.8341284219      -15.8093715779
 H       -13.3806007690       -1.0078381494      -17.0363797081
 H       -14.0324754195        3.1560654724      -15.6044599823
 H       -15.1658646500        1.9035707522      -15.0658556663
 H       -15.0413828623        2.1519642572      -16.7558817040
 H        -9.5762066255       -3.2886511863      -12.5788243782
 H       -10.7276811942       -2.6653883688      -11.6055842412
 H        -9.2301503139       -3.0903231800      -10.9467737295
 H        -9.2500446609       -0.9255263853       -9.9392019325
 H        -8.4777859843        0.5317920976      -10.5942794339
 H        -7.5968059705       -1.1207863870      -10.5575280332
 H        -8.4936001961        0.3969676577      -18.1867387957
 H        -8.4502129712        2.1063652334      -18.8617246059
 H        -9.5388814623        1.6502757969      -17.5217749470
 H        -5.9594579621        0.2727376804      -17.5277179930
 H        -5.4022889890        1.6194655719      -16.5205604312
 H        -5.7600969785        1.7563487050      -18.2228304439
 H       -11.6145428231        7.4823790134      -13.0921060235
 H       -11.9344098802        5.6819694824      -13.2397799943
 H       -12.1207962770        6.8517828510      -14.6438078660
 H        -8.5616433708        7.6800625876      -14.5508924384
 H        -9.8268215130        8.6881654004      -13.9175541049
 H        -9.8971080209        7.9388851716      -15.5678350776
 H        -5.2258707236        8.6445352444       -9.7275785807
 H        -5.3254406459        9.5058755333      -11.2428049126
 H        -3.8670320950        8.7665348121      -10.7400488164
 H        -4.4996705920        6.1612022572      -13.2592809567
 H        -3.4538381776        7.4811814417      -12.6316293824
 H        -4.8451256405        7.9638800191      -13.4495947705
 H        -4.5071281915        1.8162591672       -8.1612877997
 H        -3.5095301764        2.7359075192       -6.9264817109
 H        -3.3552455105        0.9855125077       -7.0007192274
 H        -1.2298920644        2.3450686519       -7.1417668221
 H        -0.3071615080        2.2903232829       -8.7349635203
 H        -0.8683230586        0.7655215684       -7.9406453566
 H         0.8220665030       -5.5973350531      -10.5278534863
 H         1.4280489106       -4.3839776287      -11.6043889093
 H        -0.3035273651       -4.7521839114      -11.6996424455
 H        -1.2228130864       -5.4090674396       -9.3343489256
 H        -2.1197543418       -4.1718407340      -10.0573274963
 H        -1.7389619900       -4.0310447316       -8.4171435747
 H         6.6672439936       -4.4684263543       -5.4201189051
 H         4.9700313295       -3.8973652440       -5.2477849832
 H         5.8594747787       -3.7690238826       -6.8205989592
 H         6.8930450814       -5.8300131580       -7.6382113231
 H         5.9393125130       -7.3820221442       -7.6001874622
 H         7.1332033608       -6.9485861167       -6.3026126854
 H         2.2406387819      -10.0171575675       -5.3894656635
 H         0.4511143450       -9.5481137795       -5.7884798582
 H         0.7139688741      -10.8395377229       -4.8511139450
 H        -0.0980846624       -8.6368427158       -2.0990656098
 H        -0.0774929025      -10.2496466197       -2.4830445110
 H        -1.0215355963       -9.0703574316       -3.4629490364
 H         4.5022879196       -9.4162040239        3.2075531666
 H         3.8757687012      -10.4467135411        1.8656438017
 H         3.3109692134       -8.6289366140        2.0863637212
 H         6.1966673014       -7.5854205902        2.3654693026
 H         4.5420482844       -7.0022268644        1.6633101385
 H         6.0588091718       -7.0325761893        0.7696436468
 H         9.7985670564      -12.8206331373       -2.8029474785
 H         9.6931758330      -12.3345168577       -1.0911327757
 H        10.5211988676      -11.2687560145       -2.1613116739
 H         8.9878856256       -9.6020581968       -3.6697585390
 H         7.3934848325      -10.0835241392       -3.9571429839
 H         8.5790827779      -11.1364137835       -4.5370496827
 Na        5.7333541317       -8.9869422836       -3.1536618563
 Na      -10.4280133063        3.0660416213      -13.1473766758
