232

 C         6.9915667022      -13.2342712825       -1.4401916817
 C         7.1110336126      -11.9110062520       -2.0966941884
 O         6.0805933160      -11.3750465591       -2.4700385859
 C         8.5182576032      -11.1278583843       -2.3057137597
 C         8.4060285956      -10.0229435072       -1.2343011812
 O         7.7992672534       -9.0257698439       -1.5087537806
 C         8.7926556221      -10.1951974773        0.2239414151
 C         7.9095984261       -9.3805511047        1.1152996373
 C         6.4537918859       -9.9318025625        1.1695255131
 O         6.2291068202      -11.1176468247        1.2112849990
 C         5.1413662736       -8.9718724932        1.1990238801
 C         4.7255094560       -8.9255486526       -0.2689736519
 O         5.2154046945       -8.1068259511       -1.0603952174
 C         3.7546943663       -9.9671936473       -0.8583120469
 C         2.4375417690       -9.4489231741       -1.4901652438
 C         2.5731203704       -9.2331938728       -3.0087620073
 O         3.6097424848       -9.2344830814       -3.6917589691
 C         1.1371388473       -9.0032130096       -3.7388247280
 C         1.0644334521       -7.4990121031       -4.2241399504
 O         0.3534341026       -6.6618899422       -3.7173536577
 C         2.2025752684       -6.9311113225       -5.2100583753
 C         3.4243851936       -6.3267419423       -4.4859683008
 C         4.8149315108       -6.4874188875       -5.0401856594
 O         5.6224448096       -7.1614300263       -4.3764042219
 C         5.2285977889       -5.8324493157       -6.4595039947
 C         3.9054840317       -6.0013651996       -7.2906528903
 O         3.5353590469       -7.0929636263       -7.6617434507
 C         3.1052248885       -4.6919025065       -7.5696293187
 C         1.7477660331       -4.8642258416       -8.2445935602
 C         0.8127651072       -3.5257882863       -8.5113675717
 O         0.7200002649       -2.5555093395       -7.7880631959
 C        -0.1021172936       -3.6920112280       -9.7830663810
 C        -0.5003123352       -2.3391975011      -10.5325430826
 O        -0.5178062817       -2.2046100763      -11.7429140371
 C        -1.0227686675       -1.2674372711       -9.5953267636
 C        -1.6629406801       -0.0855023297      -10.3692709500
 C        -2.7925323068        0.8200410385       -9.7744203930
 O        -3.9427241650        0.4504404816      -10.0876695112
 C        -2.5674653938        1.8736184804       -8.6394337358
 C        -2.7138691457        3.2910796887       -9.4479152705
 O        -1.8324418947        3.9929546477       -9.8882202829
 C        -4.1349778654        3.8043084428       -9.7144951847
 C        -4.3187295335        4.7102953372      -10.8920304545
 C        -4.8600974366        6.0813926610      -10.5318471717
 O        -5.2479532965        6.2585398794       -9.4060915539
 C        -5.1774134808        7.2520467018      -11.5114561287
 C        -6.6784322417        6.8632709239      -11.7881639071
 O        -6.8277785751        6.0820390189      -12.6990809375
 C        -7.7726371212        7.4937723879      -10.9161856220
 C        -9.1963008369        7.3775044978      -11.5597991523
 C        -9.5108071696        6.1260013452      -12.5282960692
 O        -9.6112262507        4.9569224068      -12.0850843959
 C       -10.0272595135        6.5654302236      -13.8884552446
 C        -9.7112309956        5.4078355608      -14.9323009028
 O       -10.3724310305        4.4223280688      -15.0249540605
 C        -8.4295123557        5.5284604762      -15.7616965326
 C        -8.4003913780        4.5542302765      -16.8870429040
 C        -7.2181908369        3.5307553624      -16.7785395460
 O        -6.0783222324        3.8864892578      -16.7435508092
 C        -7.4173066434        1.9807531171      -16.8752759228
 C        -7.9887219901        1.5413087442      -15.4317680784
 O        -9.0468734816        2.1165292272      -15.1015348360
 C        -6.9223728027        1.0978241978      -14.3976240879
 C        -7.3039174581        0.5994502377      -13.0306817554
 C        -8.0164974234       -0.8821392081      -13.0319184816
 O        -7.6355062553       -1.6619209003      -13.8601639474
 C        -9.1399435394       -1.1214989371      -11.8874897397
 C       -10.2324053050       -0.1662445861      -12.5020435442
 O       -10.3031545810        0.9651190272      -12.0797698976
 C       -11.3651749064       -0.6976632736      -13.4148495151
 C       -11.4246130595       -0.0267160486      -14.7921943721
 C       -12.5248154836        1.0858326665      -14.8951074479
 O       -12.5519153141        1.8893015207      -13.9548385817
 C       -13.4043507665        1.1312236611      -16.3106595498
 C       -12.5358921860        1.5630893884      -17.5305525665
 O       -11.5299948343        0.9274352547      -17.8145751404
 C       -13.3022575135        2.6414552017      -18.4152231052
 C       -12.7009133559        3.0359785948      -19.7088874665
 C       -11.8743103754        4.3707221839      -19.6890165543
 O       -11.9791713059        5.1600170121      -18.7681556973
 C       -10.8567567472        4.6088515052      -20.8947865550
 C        -9.4750393396        3.8294154653      -20.7746055962
 O        -8.4611327106        4.4503519763      -20.4200074537
 C        -9.2702745247        2.4371330496      -21.4341486478
 C       -11.5343113078        4.2267251381      -22.2657055532
 C       -10.5593502062        6.0569381676      -20.9461943222
 C       -13.9007004335       -0.2966374775      -16.7047109131
 C       -14.5335576602        2.2318881827      -15.9385149070
 C        -9.6739190132       -2.5929022752      -11.8546232719
 C        -8.6176522676       -0.8133957397      -10.4964825260
 C        -8.5845371124        1.5700698162      -17.8396545554
 C        -6.1940238166        1.2198132339      -17.3496033503
 C       -11.6437116553        6.5140603547      -13.6646611995
 C        -9.4231607593        7.9232920996      -14.5207957898
 C        -4.9629000430        8.5608052258      -10.7876588096
 C        -4.3135813939        7.0395069000      -12.8513126312
 C        -3.6410551919        1.6771038474       -7.5205578738
 C        -1.0820637821        1.6376609717       -8.1180282822
 C         0.4922529430       -4.5621551872      -10.9742789788
 C        -1.4399690859       -4.2854367990       -9.4291098111
 C         5.7526643749       -4.4244719007       -6.0502796787
 C         6.4183633721       -6.5747990411       -7.0781615865
 C         1.2234395076       -9.8539678138       -5.1509862907
 C        -0.0840270134       -9.3601263657       -2.8454657377
 C         4.1413663720       -9.6588304712        2.1166644136
 C         5.7500549568       -7.6223758295        1.6730446663
 C         9.7782178945      -11.9077286947       -2.1120323900
 C         8.5221530434      -10.4941533528       -3.7270651485
 H         6.0512963122      -13.7264692850       -1.6570331398
 H         6.9969201399      -13.0426285085       -0.3227088956
 H         7.9480637435      -13.7596494514       -1.6739809899
 H         9.9008843415       -9.8407225409        0.2926918039
 H         8.9239056729      -11.2498551604        0.6368628976
 H         8.0245761739       -8.3334730465        0.8060562853
 H         8.3580136330       -9.4156469508        2.0571762760
 H         3.3526780026      -10.5755943167       -0.0443747226
 H         4.4583654860      -10.4381311344       -1.5162643551
 H         2.0875906342       -8.5399597968       -1.0508597697
 H         1.5993653055      -10.0318305647       -1.2638590083
 H         1.6754734426       -6.2303705686       -5.8391522033
 H         2.3713318368       -7.7858380699       -5.9108289268
 H         3.4172891772       -6.6656948328       -3.4578195842
 H         3.0924864470       -5.2763794896       -4.2937486214
 H         3.6959231612       -4.0486736087       -8.1851432593
 H         2.8007001037       -4.2119459766       -6.6076056299
 H         0.9431112907       -5.2286666102       -7.5873841516
 H         1.9357740874       -5.4599415964       -9.1757734549
 H        -0.1762475222       -0.9983816024       -9.0173156039
 H        -1.7780831236       -1.7289031403       -8.9156995206
 H        -2.1347098345       -0.6076918551      -11.2397220846
 H        -0.9280812650        0.4682243173      -10.8668397036
 H        -4.4225133241        4.3258447655       -8.7518500474
 H        -4.8571338023        2.9804005201       -9.7683012067
 H        -4.8551384750        4.2821376060      -11.6702497235
 H        -3.2997244488        4.7739973131      -11.3009489378
 H        -7.5703266477        8.5209182735      -10.6874634412
 H        -7.7001044499        7.1554721954       -9.9472708898
 H        -9.4162615227        8.1975754295      -12.2152002226
 H        -9.9621676824        7.2439970251      -10.8145129792
 H        -7.5422640020        5.5234654235      -15.0804022135
 H        -8.4871133613        6.5022936097      -16.2420166735
 H        -8.2034845845        5.0371770328      -17.8825727954
 H        -9.3876484239        4.0746222415      -16.8112031900
 H        -6.2825862050        1.9675258821      -14.1473960529
 H        -6.4286936212        0.3007433703      -14.9055758052
 H        -8.0401111433        1.2680600903      -12.4761438900
 H        -6.4130787775        0.4835124260      -12.4029439446
 H       -12.3527388870       -0.5071867055      -12.9367087465
 H       -11.1475273813       -1.7683984200      -13.5558168521
 H       -11.5759668594       -0.8259173986      -15.5559335407
 H       -10.3878811438        0.3397889448      -14.9887860067
 H       -13.2786979562        3.5385597884      -17.7455371856
 H       -14.3348421724        2.3674733225      -18.5246121487
 H       -13.4474600252        2.9814826489      -20.4640358658
 H       -11.8741668747        2.3112741039      -20.0155280887
 H       -10.2212270813        2.0477187593      -21.6950016489
 H        -8.9170744577        1.8698945698      -20.5797734060
 H        -8.6154188778        2.3519138457      -22.3289659513
 H       -12.4654862633        4.7380376369      -22.4616744541
 H       -11.8560246657        3.1835529691      -22.2403074948
 H       -10.8490997376        4.5200914675      -23.0700216801
 H       -11.3675555446        6.7562436621      -20.6702847638
 H       -10.3739905159        6.2779982503      -21.9649387484
 H        -9.6447782562        6.2680535839      -20.4383477845
 H       -14.4230704508       -0.1849139375      -17.6770227404
 H       -14.4772289707       -0.8303938532      -16.0022053086
 H       -12.9972870401       -0.9277017478      -16.9268158580
 H       -13.9833000722        3.1890119322      -15.7420397424
 H       -14.9734670178        1.9689575378      -14.9767590415
 H       -15.3415765837        2.3746473174      -16.6398338884
 H        -9.8337808733       -3.1546554476      -12.7513193949
 H       -10.6193332137       -2.8254687250      -11.2931809636
 H        -8.9497464267       -3.2411235279      -11.3544504500
 H        -9.3975182352       -0.9840455138       -9.8077947555
 H        -8.2711438011        0.2568703308      -10.3670235907
 H        -7.8083458192       -1.5308152813      -10.3859320291
 H        -8.8981937042        0.4458886233      -17.8511935684
 H        -8.1544125954        1.8044504807      -18.8570687896
 H        -9.4676549717        2.1251097531      -17.7484543199
 H        -6.2973724596        0.1751098967      -17.2129939122
 H        -5.2252652372        1.5518737526      -16.8791076747
 H        -6.1155941507        1.2568302607      -18.4073475037
 H       -12.0512487127        7.4686094944      -13.3380837985
 H       -11.7315831226        5.6919341750      -12.9224962358
 H       -12.1313803270        6.2766055893      -14.5605527116
 H        -8.3740543456        7.7270562725      -14.6261075420
 H        -9.5222625004        8.7697412820      -13.8161568658
 H        -9.8952267956        8.1337557168      -15.4463523465
 H        -4.9453447117        8.3802899558       -9.7705459871
 H        -5.7399338439        9.3201958933      -10.8949477495
 H        -4.0323089014        9.0707338812      -11.0290816699
 H        -4.4462659639        6.0390629148      -13.2493014848
 H        -3.2196504531        7.2065217503      -12.5827990341
 H        -4.4923577444        7.7961887773      -13.6231050994
 H        -4.6094757622        1.4788614732       -7.9740765206
 H        -3.7692930601        2.5261735539       -6.8421411904
 H        -3.2169124397        0.8510955358       -6.8220195302
 H        -0.8706526101        2.4596001704       -7.5159038827
 H        -0.3581758868        1.6201250833       -8.9413828881
 H        -0.9899975678        0.7631344179       -7.5160517335
 H         0.5462290513       -5.6140041162      -10.5766717703
 H         1.5122514211       -4.3174038157      -11.2589371468
 H        -0.1628801467       -4.3973186489      -11.8044152509
 H        -1.3950353887       -5.3234925736       -9.1730992440
 H        -2.1169441083       -4.1493443860      -10.2399487199
 H        -2.0140195011       -3.8364324564       -8.6362888000
 H         6.4882431869       -4.5963895153       -5.2767017007
 H         4.9514045706       -3.8632623208       -5.5834595899
 H         6.1587686321       -3.8946841392       -6.8824056472
 H         6.9710817903       -5.7774611200       -7.6642808040
 H         6.1372836481       -7.4549234730       -7.7209588309
 H         7.1057822970       -6.8598608549       -6.2654898133
 H         2.2349843962       -9.7514322058       -5.3770730342
 H         0.5577776061       -9.5187477022       -5.9263011653
 H         0.8842302020      -10.9323248858       -5.0398316638
 H        -0.1114391115       -8.8841176552       -1.8310496471
 H        -0.0530176449      -10.4507677422       -2.6043686875
 H        -1.0120347250       -9.0191901981       -3.2636495545
 H         4.6086166628       -9.7604976433        3.1138224320
 H         3.8478204774      -10.5900669486        1.6906195938
 H         3.4259140908       -8.7888609435        2.1688710031
 H         6.3024449548       -7.8092837307        2.5832692649
 H         4.9452064518       -6.8522679055        1.5874198037
 H         6.5302643575       -7.3120993306        0.9620040939
 H         9.8942979891      -12.5759980882       -2.9947612299
 H         9.8583340703      -12.4095503230       -1.1313167581
 H        10.5462131336      -11.1705292309       -2.1115994604
 H         9.0921152121       -9.6051595123       -3.7599866041
 H         7.5529974978      -10.2024734327       -4.1992774846
 H         8.8843961456      -11.2058389303       -4.4987929797
 Na        5.6363191113       -8.9544692632       -2.9696823792
 Na      -10.6090519980        2.9453482700      -13.1382093661
