232

 C         7.0287175330      -13.3096584089       -1.5922963099
 C         7.1517736540      -11.8947093734       -2.1877136382
 O         6.0936096204      -11.2701671024       -2.3797747091
 C         8.5735372213      -11.1070594824       -2.3608652582
 C         8.3436017915       -9.9416514928       -1.2804595940
 O         7.8176464685       -8.9047705287       -1.6026480776
 C         8.8127345040      -10.2726619321        0.1560957422
 C         7.8939992497       -9.4938504614        1.1510486706
 C         6.4812460545      -10.0371633547        1.1984262459
 O         6.2918556989      -11.1973168365        1.1142977443
 C         5.2584516679       -8.9977306333        1.3096208130
 C         4.7316902417       -8.9150838606       -0.1298738082
 O         5.1573370081       -8.0602934505       -0.8879083332
 C         3.6259125986       -9.9821433487       -0.7398993147
 C         2.5271191049       -9.2463499675       -1.5633818427
 C         2.5350237063       -9.1291137411       -3.1317674187
 O         3.5135886019       -9.1898275457       -3.8052689494
 C         1.2304472346       -8.9002225680       -3.8152442921
 C         1.1876265148       -7.3325089590       -4.1915388066
 O         0.4328772675       -6.6389351120       -3.6132512139
 C         2.2311406238       -6.8973439363       -5.1812018057
 C         3.4171594080       -6.3509340420       -4.4340447728
 C         4.8887281017       -6.6088774812       -5.0868439999
 O         5.8552334007       -7.1315382805       -4.5760037180
 C         5.1762917204       -5.9034647197       -6.4173596901
 C         3.9426898178       -5.8979704043       -7.3617715093
 O         3.6383693485       -7.0260418153       -7.8961593406
 C         3.0959115947       -4.6299538840       -7.5586255762
 C         1.7391122700       -4.8661398592       -8.2529586306
 C         0.7421138930       -3.6739645985       -8.5318552511
 O         0.7948483137       -2.7695304311       -7.7723100661
 C        -0.2402084191       -3.7199426445       -9.8755318763
 C        -0.6064806479       -2.3129227084      -10.5287310614
 O        -0.5793987375       -2.2244802287      -11.7464118281
 C        -1.1739688511       -1.1845792157       -9.6488445114
 C        -1.6998943481       -0.0277647550      -10.4867080292
 C        -2.8126282685        0.7212764724       -9.7025872176
 O        -3.9312735957        0.6047613600      -10.0615323486
 C        -2.5683328546        1.8528268116       -8.6384686859
 C        -2.8252210828        3.2444355486       -9.3287413862
 O        -1.8628804644        3.9154762025       -9.7319653770
 C        -4.2992846502        3.6276073382       -9.6606977791
 C        -4.4001775629        4.6020733548      -10.8830381847
 C        -4.7695468132        6.0659152943      -10.4603606514
 O        -5.1508609407        6.3411312131       -9.3419681257
 C        -5.0629988224        7.1726488467      -11.5348202017
 C        -6.6208912458        6.7688396518      -11.9537251839
 O        -6.9196690046        5.9209213776      -12.7199851860
 C        -7.7493558167        7.3797857131      -11.0627529267
 C        -9.1651973790        7.2208328806      -11.5642572875
 C        -9.5367020300        6.0610270762      -12.5243307598
 O        -9.6400786496        4.9519930467      -12.0656162748
 C       -10.0445783269        6.5453699518      -13.9358721811
 C        -9.8057626802        5.4026908060      -14.9069773913
 O       -10.5809632861        4.5188046977      -14.9659111324
 C        -8.5096942326        5.5570930837      -15.7590270633
 C        -8.3814666314        4.4793283898      -16.8542472107
 C        -7.1837936742        3.5810131908      -16.9365729818
 O        -6.0367077263        3.9479620063      -16.9890656334
 C        -7.4805934121        1.9223896728      -16.8454639726
 C        -7.8530202369        1.7268489064      -15.3174807680
 O        -8.9617227151        1.9981160857      -14.8686853954
 C        -6.7965589444        1.0705536158      -14.3266570337
 C        -7.3549115004        0.5793873827      -12.9979828875
 C        -8.0250571453       -0.7855165252      -12.9539701165
 O        -7.8994118022       -1.6771583475      -13.7825696208
 C        -9.1156929953       -1.1582001446      -11.8633214393
 C       -10.2581260799       -0.1522367775      -12.3442419591
 O       -10.0971286332        0.9753514067      -11.8727838626
 C       -11.3069481571       -0.5806170648      -13.3713895863
 C       -11.3613535173        0.0862195830      -14.9039354469
 C       -12.5007628922        1.1492446248      -14.9956838342
 O       -12.6819784444        1.9480556896      -14.0841260574
 C       -13.3367912094        1.2613472202      -16.1674794560
 C       -12.5047327484        1.6370188627      -17.4878625152
 O       -11.5536660143        0.9371507654      -17.8331674218
 C       -13.1860836266        2.5901634815      -18.4469038103
 C       -12.5467528830        3.0085033390      -19.7737260751
 C       -11.7026657403        4.3437753584      -19.7374672906
 O       -11.8465622890        5.1152079817      -18.8174637127
 C       -10.8531065653        4.7287310156      -21.0250679308
 C        -9.5656513975        3.8840634600      -20.8945026150
 O        -8.5541915179        4.3836013346      -20.4683928092
 C        -9.5041596688        2.3521784518      -21.3365496638
 C       -11.6354363377        4.3440947360      -22.2659345940
 C       -10.4705398169        6.2451786741      -20.8928890100
 C       -13.8185755661       -0.1245725789      -16.5860867413
 C       -14.5829181923        2.0872933353      -15.8871250799
 C        -9.4950499550       -2.6203192115      -12.0657909254
 C        -8.7375041528       -0.9021561589      -10.4181704898
 C        -8.7351544664        1.6426777930      -17.8193847966
 C        -6.2942507440        1.1096911762      -17.2216119099
 C       -11.5802392797        6.6287925504      -13.7838520226
 C        -9.5330472762        7.9054982136      -14.3361290819
 C        -4.9344839894        8.5495999315      -10.9353809602
 C        -4.1822427973        7.0279362036      -12.8422759736
 C        -3.5670883743        1.5950152710       -7.5522827253
 C        -1.1271964891        1.7250093766       -8.0349835363
 C         0.5680934361       -4.5063222366      -10.9350849596
 C        -1.5976893111       -4.2813677692       -9.3446176977
 C         5.5818369885       -4.4283580363       -6.1845187928
 C         6.3891337703       -6.6888969628       -7.1478227428
 C         1.1788583276       -9.7730575676       -5.0899141978
 C         0.0424873461       -9.3183522412       -3.0143666460
 C         4.2288274754       -9.7053212170        2.1953346718
 C         5.7588273860       -7.5327469758        1.8975556445
 C         9.8930773308      -12.0461972019       -2.0848926885
 C         8.6661489685      -10.4928917377       -3.7674630564
 H         6.1890357013      -13.8447574979       -2.2087023061
 H         6.6925506650      -13.3798190496       -0.5546575310
 H         8.0496966147      -13.7302696448       -1.7824618819
 H         9.9213769710      -10.3164608408        0.3619831723
 H         8.5543142534      -11.3810167816        0.2614956410
 H         7.9507614697       -8.4008268320        0.8994531514
 H         8.3076149487       -9.5566296652        2.1824706316
 H         2.9672857774      -10.3844735514        0.0919628014
 H         4.2824437022      -10.6216241896       -1.2918596120
 H         2.2690013410       -8.3410534126       -1.0798019854
 H         1.6142448738       -9.7741855275       -1.2881707158
 H         1.7417384645       -6.2781705083       -5.8997959310
 H         2.4770557355       -7.8337475110       -5.7332924181
 H         3.3537338172       -6.6396730001       -3.3648641447
 H         3.2110460147       -5.2549796869       -4.2674884861
 H         3.6225528559       -3.9668280239       -8.1703037859
 H         2.8461488456       -4.2250145237       -6.5119769648
 H         1.0152975614       -5.5408396628       -7.8424163918
 H         2.1547086434       -5.1685055260       -9.2280013900
 H        -0.2743608216       -0.9270058485       -8.9773279643
 H        -1.9708428077       -1.5695008188       -9.0386329547
 H        -1.9541539525       -0.4184087946      -11.5336196950
 H        -0.9044496834        0.7732541461      -10.7218126715
 H        -4.9520649754        4.1668263141       -8.8222919362
 H        -4.8057596477        2.7121440990       -9.8315938618
 H        -5.1887113358        4.3292545334      -11.5627078139
 H        -3.4843223392        4.4804601026      -11.5024755060
 H        -7.6941233383        8.3715129038      -10.6269534786
 H        -7.6062722296        6.8307070639      -10.0935679311
 H        -9.5257301996        8.1184544307      -12.1779401989
 H        -9.7994637319        7.0202598233      -10.7008263108
 H        -7.7838821118        5.4571500627      -15.0152901053
 H        -8.4469173677        6.5949258547      -16.2329435539
 H        -8.3535911835        4.8698313005      -17.8535595271
 H        -9.3852184023        3.8680573434      -16.6244803400
 H        -6.0739848634        1.6947645477      -13.9409582087
 H        -6.4596240228        0.1804767178      -14.9436893700
 H        -8.2115018994        1.2629632301      -12.6234828379
 H        -6.5369315902        0.6125756853      -12.1999359170
 H       -12.3155490485       -0.3870333878      -12.9580665420
 H       -11.0711662675       -1.6373784105      -13.5195983674
 H       -11.6721120738       -0.7585196968      -15.5763103605
 H       -10.3915482688        0.3253750982      -15.1979074082
 H       -13.4537701905        3.5154421399      -17.8548037054
 H       -14.1315807593        2.1023751266      -18.6968316683
 H       -13.4740763864        3.2367747928      -20.3810016253
 H       -11.9408042006        2.2521296849      -20.2763796093
 H       -10.3992905660        2.0786591413      -21.9449830120
 H        -9.4418379459        1.7783020840      -20.4836774509
 H        -8.6402387467        2.1978681675      -22.0275256274
 H       -12.5489163207        4.9627893945      -22.4379502156
 H       -12.1215832647        3.3059930890      -22.1470910446
 H       -11.0184100589        4.5271817207      -23.1554362916
 H       -11.2925744376        6.9472897779      -21.0892510066
 H        -9.7024095374        6.4460987040      -21.6389079967
 H        -9.9954901318        6.4257190438      -19.9980152091
 H       -14.3127343998       -0.0065335233      -17.5349103965
 H       -14.5678044855       -0.6433199988      -15.8920874483
 H       -12.9937695696       -0.8001534522      -16.7597929220
 H       -14.3694359708        3.1004458506      -15.9246530874
 H       -15.0140922563        1.8523940222      -14.9040319868
 H       -15.3547613155        1.8521177116      -16.6632966764
 H       -10.0208753676       -3.0489753713      -12.9475388618
 H       -10.1706544673       -2.9947153112      -11.2705235411
 H        -8.6657803706       -3.2941519136      -12.0029167208
 H        -9.6551543770       -0.8109866864       -9.7809319875
 H        -8.3364767167        0.0398329496      -10.4502513775
 H        -8.0071824676       -1.6269114257      -10.1046777655
 H        -9.2836588378        0.7376663694      -17.7452457533
 H        -8.2432582632        1.6603982680      -18.7605520874
 H        -9.5447025868        2.4616304102      -17.9604452458
 H        -6.2688171158        0.0368981722      -16.9469860043
 H        -5.3862593323        1.5679530964      -16.9142137929
 H        -6.3154874551        1.0127625445      -18.3379642483
 H       -11.9484087549        7.5850761982      -13.5944837225
 H       -11.6771872020        5.8765339748      -12.9623544131
 H       -12.0737813505        6.3021329667      -14.6571399265
 H        -8.4694869080        8.1379587579      -14.0028033939
 H       -10.2070618872        8.5180580340      -13.7567951405
 H        -9.7827882493        8.1293870553      -15.3890350442
 H        -4.8597240040        8.5346748225       -9.8641081244
 H        -5.8198265472        9.1067799476      -11.0914993822
 H        -4.1234395096        9.2055029492      -11.3116746108
 H        -4.5100253628        6.1410320517      -13.3939474726
 H        -3.0725918643        6.9742145000      -12.6611645856
 H        -4.3203700522        7.8835336180      -13.4681240016
 H        -4.6008302074        1.3802516426       -7.9266921316
 H        -3.6941967182        2.4747824004       -6.9822473285
 H        -3.1289089304        0.8985864718       -6.8840536316
 H        -0.7498525131        2.6525262407       -7.7802314870
 H        -0.4577713903        1.2961869617       -8.7370128540
 H        -1.1168326504        1.1658547722       -7.1593600666
 H         0.4068892608       -5.5760693649      -10.7148819957
 H         1.5976350252       -4.3083803175      -10.7907221862
 H         0.3078859850       -4.1465626371      -11.9737372704
 H        -1.4189292750       -5.2020640927       -8.7241351658
 H        -2.4208047220       -4.4673567810      -10.0584704216
 H        -2.0908554480       -3.6408266973       -8.7307840300
 H         6.3412813466       -4.3679975432       -5.3782060854
 H         4.8253394789       -3.7921481174       -5.9108521964
 H         5.9864726448       -4.1730386857       -7.1593736785
 H         6.8105501396       -6.0558363543       -7.9366976568
 H         6.0026997955       -7.6423110114       -7.5554256470
 H         7.1886885397       -6.8926912209       -6.3833015063
 H         2.0946714694       -9.6987326021       -5.6012453371
 H         0.3059981980       -9.5318433189       -5.6634723081
 H         0.9272998569      -10.8241838785       -4.7573878549
 H        -0.0662278372       -8.8725042071       -2.0480197534
 H         0.0633340491      -10.4545103579       -2.8102049804
 H        -0.8794976941       -8.9985251520       -3.5326706119
 H         4.6386484031       -9.6437135967        3.1991639032
 H         4.1840669757      -10.7625582197        1.8077961737
 H         3.4254232222       -9.1061897945        2.1248918138
 H         6.2871233498       -7.7056016176        2.8285017548
 H         4.7684389255       -7.1087214577        1.8549651769
 H         6.4231048331       -6.8328006372        1.2742592538
 H         9.9156011664      -12.6011568580       -2.9987260789
 H         9.9444197830      -12.6303903565       -1.1223708563
 H        10.7765281948      -11.3886373657       -2.0707395015
 H         9.3462651093       -9.6167036090       -3.8229073088
 H         7.7905745415      -10.2212453967       -4.2746508973
 H         9.0581450013      -11.2360225998       -4.4299545999
 Na        5.7211365427       -8.9664726972       -2.7942637568
 Na      -10.7408679698        2.8800721824      -13.2200436811
