232

 C       -19.1125583061      -10.0693485043       -0.2152296257
 C       -18.2657928793      -11.2132250361       -0.7352585113
 O       -17.9737218797      -11.1404628145       -1.9364140078
 C       -17.9320494690      -12.3873296962        0.1978259138
 C       -16.3399500109      -12.7330034083        0.0018553661
 O       -16.0741054310      -13.3532355453       -1.0129419851
 C       -15.3317616073      -12.2705939279        1.0174192276
 C       -14.0034179758      -11.7239044334        0.4941665406
 C       -14.2961316798      -10.5581750573       -0.4518723957
 O       -15.4673798335      -10.2505621130       -0.6314442271
 C       -13.1790209970       -9.7765535768       -1.2438107540
 C       -13.3356248657      -10.3646015382       -2.7464506985
 O       -13.5768650662      -11.6077404430       -2.8579394812
 C       -13.2944670970       -9.4545167781       -3.9774202900
 C       -13.7076505230      -10.1732686473       -5.2290511489
 C       -15.2216545888       -9.9067272928       -5.6621485529
 O       -16.0489720066      -10.4255306132       -4.9102101015
 C       -15.7009913119       -9.4392198070       -7.0538512914
 C       -14.9750218724       -8.0203376015       -7.2344539662
 O       -14.2615495053       -7.6990256967       -6.2953956177
 C       -15.1689435072       -7.1080162557       -8.4638185172
 C       -14.1152253962       -6.0079785701       -8.4796087625
 C       -14.5404996735       -5.1255425495       -9.7400708788
 O       -15.5896146400       -4.5335621066       -9.7327098289
 C       -13.4466657981       -5.0743742258      -10.8927709581
 C       -12.2068891138       -4.3655320505      -10.2826624301
 O       -11.5019984457       -4.9815400921       -9.4597227597
 C       -12.0693849908       -2.7721010250      -10.4343945283
 C       -10.8688971670       -2.2060763809       -9.6180832431
 C       -10.2978495457       -0.8921702295      -10.2259513341
 O       -10.5735921324       -0.6519307820      -11.3899000393
 C        -9.3589019061        0.1596105109       -9.4259995313
 C        -7.8905849396       -0.4313655600       -9.7865278391
 O        -7.3923793268       -1.3368891855       -9.0846945628
 C        -7.1023701392        0.2331828276      -10.9184215339
 C        -5.5755066819        0.0534456406      -10.6797758316
 C        -4.7421164759        1.3624798459      -11.0372135993
 O        -5.1701569589        2.4682780204      -10.9238212555
 C        -3.3703640030        1.2658562850      -11.8445685021
 C        -2.4614889572        0.3461026606      -11.0264223637
 O        -2.6655042908       -0.8726706106      -10.9798421166
 C        -1.3476325713        1.0643586323      -10.2808154663
 C        -0.5083259492        0.0818434392       -9.4179707322
 C         0.3945620214        0.8954480190       -8.4092647378
 O         0.0400868882        2.0637602872       -8.3470863688
 C         1.6581827426        0.3380949334       -7.5494467691
 C         2.8622723245        1.1074930321       -8.0129257701
 O         3.6612520492        0.6799559263       -8.9246999826
 C         3.0720703079        2.4779952735       -7.3836277683
 C         4.1865943118        3.4120728353       -7.9969218278
 C         3.7487358198        3.9301343136       -9.3518120533
 O         2.6269026027        3.6853919655       -9.7782918201
 C         4.5314263345        5.0385280052      -10.1408010300
 C         4.5751190557        4.4940947679      -11.5244655711
 O         5.4011279255        3.6056764653      -11.7711574217
 C         3.3769376123        4.6249651363      -12.5825224504
 C         3.2991446144        5.9005105352      -13.4320446311
 C         4.2238459586        6.1252863044      -14.6370635647
 O         4.9391040323        5.2227451159      -15.1261512736
 C         4.1270055500        7.6592788463      -15.3306104534
 C         5.5535193107        7.6178069892      -16.1720873259
 O         5.5800776560        7.4505809710      -17.4097723122
 C         6.8804901753        7.8505242501      -15.4773374118
 C         8.0436083947        7.3264358089      -16.2826737192
 C         7.8897798386        5.7450074300      -16.4025324922
 O         7.6663402320        5.1870274113      -15.3296653896
 C         8.0526298587        5.0363100608      -17.7854198111
 C         9.3425923155        4.1540540226      -17.5907881102
 O        10.1965151109        4.4272196251      -16.7110022077
 C         9.6384628731        3.0514855499      -18.6459835090
 C        10.5302212433        1.8871803629      -18.1785310459
 C         9.8091411978        0.5082903152      -18.1174614874
 O         8.7230647178        0.3202942115      -18.6456092025
 C        10.4727970925       -0.5496889187      -17.2138613083
 C        10.2032382886       -0.0170101862      -15.7035246837
 O        10.6916579727        1.0081925919      -15.3540091184
 C         9.3354301356       -0.9214229378      -14.8288098528
 C         8.8803766621       -0.3528327557      -13.4259443286
 C         7.6494927594        0.5038156730      -13.6660758349
 O         7.7066224293        1.6941763502      -13.4712195633
 C         6.1800438707       -0.1000685428      -14.0922514180
 C         5.9595610542        0.5962719173      -15.4813185611
 O         5.7585936787        1.8050848140      -15.5585555525
 C         6.0277000940       -0.2254179598      -16.7572194800
 C         6.0959760904       -1.6246111206      -14.0026934425
 C         5.1578865558        0.4307651944      -13.0251833355
 C         9.8653551374       -2.0486369350      -17.3861035396
 C        12.0141441943       -0.6102805556      -17.5640097065
 C         6.5957861762        4.3105583149      -18.0255866864
 C         8.3027313253        5.9721321386      -19.0078215956
 C         2.8850803258        7.6822955610      -16.2573864720
 C         4.1000723383        8.6805760642      -14.1540679554
 C         3.8464049785        6.4188687764       -9.8300507113
 C         6.0714192807        4.9947717232       -9.6372872078
 C         1.2113700759        0.5546663178       -6.0725272054
 C         1.8719765138       -1.1249594407       -7.9265415205
 C        -3.7627364730        0.4813128810      -13.1573705365
 C        -2.7299531316        2.6371612983      -12.1436792735
 C        -9.5499906874        1.6483175206       -9.8660927110
 C        -9.6527023360        0.1344790103       -7.9318841231
 C       -12.9823408879       -6.4994750236      -11.3293872760
 C       -13.9114889411       -4.2551201111      -12.0422793447
 C       -15.2889705982      -10.4778031708       -8.1316280689
 C       -17.1950062045       -9.1884669511       -6.9012481059
 C       -13.5479207809       -8.2632747027       -1.2560712875
 C       -11.7247576841       -9.9405357524       -0.6812152088
 C       -18.1350192968      -11.9939693364        1.7117140339
 C       -18.8377653036      -13.5423111395       -0.1620772374
 H       -18.3535393624       -9.4352738588        0.2682684893
 H       -19.8872750563      -10.3674262473        0.4772304814
 H       -19.4896024176       -9.5353736989       -1.0728939045
 H       -15.1892149557      -13.1004181759        1.6889830793
 H       -15.7648379764      -11.5416656103        1.7016040809
 H       -13.2650950580      -12.3365697335        0.0306020650
 H       -13.5223539886      -11.2396950376        1.2933600407
 H       -12.2779764776       -9.1453722676       -3.9986323907
 H       -13.8838102103       -8.5305747353       -3.7607307822
 H       -13.6543204099      -11.2904614848       -4.9940637336
 H       -13.0398334737       -9.8336604181       -6.1186177519
 H       -16.1970722430       -6.6083240966       -8.5049656709
 H       -15.0789930346       -7.5406892362       -9.4422378859
 H       -13.1784840022       -6.4875333692       -8.5191731385
 H       -14.0724035653       -5.3365293909       -7.5978710861
 H       -13.0369151036       -2.2913104227      -10.2804934640
 H       -11.9568962295       -2.3816254629      -11.4757870608
 H       -10.0506864560       -2.9519443154       -9.6729086850
 H       -11.1455567941       -2.3096372573       -8.5808403629
 H        -7.3008081178        1.3271084988      -10.8246117114
 H        -7.2716780816       -0.0582404514      -11.9827749842
 H        -5.1945496408       -0.7880408834      -11.2204751682
 H        -5.4187083548       -0.1383860050       -9.5233551583
 H        -1.7908368847        2.0227285943       -9.7744095821
 H        -0.6562893131        1.4179754809      -10.9819940679
 H         0.2456877633       -0.3965023186      -10.0468186181
 H        -1.1154935896       -0.7034695613       -9.0211486272
 H         3.2620633649        2.2068014570       -6.3537616442
 H         2.1460070481        2.9784535389       -7.5276873267
 H         5.1903902729        2.9192345957       -8.2055419740
 H         4.4447206553        4.2614471849       -7.3428491655
 H         2.4857868512        4.3922215203      -11.9797664195
 H         3.5781163201        3.8139185261      -13.3828716892
 H         3.3726994343        6.7306767126      -12.7792980526
 H         2.3329770443        6.0376826101      -13.8995885014
 H         6.9250175625        7.1611471611      -14.6349870775
 H         7.1357486489        8.8925381248      -15.0997958050
 H         8.9088366467        7.4832184631      -15.7091182033
 H         8.2123991745        7.7540342531      -17.2553413663
 H        10.0155899519        3.5918693075      -19.5308553734
 H         8.7332854404        2.5627329754      -19.0433929120
 H        11.0717330514        1.9704116024      -17.1770438110
 H        11.2309055693        1.7010333208      -18.9435948218
 H         9.8940368158       -1.8800359055      -14.8172093750
 H         8.4265523943       -1.2510321838      -15.3786777770
 H         9.6599060174        0.2730883820      -13.1491122580
 H         8.5908178482       -1.1737876865      -12.6776243643
 H         6.9476165555       -0.7939709641      -16.9065670988
 H         6.0176299926        0.3803339992      -17.7105589630
 H         5.1473990568       -0.9454277149      -16.7504208951
 H         5.0535206914       -1.8708507396      -14.1390593041
 H         6.3168481070       -1.9297397015      -12.9931721332
 H         6.7148531306       -2.1987116826      -14.6747379459
 H         4.1104038872        0.3872786517      -13.3737335913
 H         5.4533954098        1.3575495143      -12.6609743186
 H         5.2149100946       -0.2489899553      -12.1128584621
 H         9.9375903817       -2.4635448125      -18.3856038042
 H         8.7784721038       -1.9695067751      -17.2209492703
 H        10.0960205694       -2.7599175560      -16.5596612101
 H        12.0925710247       -0.8574764305      -18.6531506382
 H        12.4985015160       -1.3751052151      -16.9154310448
 H        12.4800019071        0.3786705507      -17.3683979528
 H         6.4404633017        3.7376470880      -17.0625571063
 H         6.6759361473        3.6416760051      -18.8348557835
 H         5.8039500889        5.0200359487      -18.1937947165
 H         9.3114268009        6.3656784512      -19.0369323073
 H         7.5760010588        6.7402603322      -19.1071799569
 H         8.1792378230        5.5188076946      -19.9879823738
 H         1.9926227212        7.7502843781      -15.6548580298
 H         2.8517157516        6.7570341087      -16.9523233294
 H         2.9752276018        8.5608275383      -16.8874251248
 H         4.0499857762        9.6734050916      -14.5674650699
 H         5.0450808498        8.5353857339      -13.5949325343
 H         3.2196419118        8.4711018432      -13.4552812821
 H         3.6691064364        6.7812665956       -8.7865894156
 H         2.9362507304        6.4984730824      -10.3563017039
 H         4.3736744739        7.2916108453      -10.2840086088
 H         6.7054672507        5.5840801329      -10.3153378415
 H         6.3347422830        3.9377223072       -9.5425587091
 H         6.1599856573        5.3678700757       -8.6143349401
 H         1.3497903882        1.6682239470       -5.7690813223
 H         1.8692670748        0.0845794403       -5.3147789285
 H         0.1547320698        0.1871092882       -5.8566158810
 H         0.9528187641       -1.6761056658       -7.6026136115
 H         2.7347881703       -1.4849512228       -7.3867125256
 H         2.1399785693       -1.3268092063       -8.9826993126
 H        -4.5837561872        0.9517396958      -13.6463845123
 H        -3.9143150618       -0.5816764822      -13.0173620642
 H        -2.8705406129        0.4841237962      -13.7288727126
 H        -1.8055162766        2.4111398905      -12.6835896830
 H        -2.6796683957        3.1849034011      -11.2244009499
 H        -3.3801516356        3.2970714716      -12.7482610395
 H       -10.2720315598        2.0814364925       -9.2679304068
 H        -9.8830758301        1.7320838158      -10.9383128058
 H        -8.6235499011        2.1916126767       -9.7927116446
 H       -10.7503261506        0.3020208799       -7.7380670383
 H        -9.1652323470        0.9717500716       -7.4632594691
 H        -9.3801136569       -0.8254274446       -7.5310800108
 H       -12.6920795238       -6.3768846339      -12.3486444954
 H       -13.8461635708       -7.2137049725      -11.3766562765
 H       -12.2326807973       -6.8724605789      -10.6371401659
 H       -14.6078029252       -4.7994564035      -12.6686653848
 H       -13.1328066551       -3.9493152622      -12.7363689242
 H       -14.4735712282       -3.3739186129      -11.7802350903
 H       -14.2798913175      -10.7579934009       -8.1256613934
 H       -15.5592782007      -10.0060814206       -9.0573457891
 H       -15.8674550625      -11.4246339952       -7.9775569641
 H       -17.3936808332       -8.3481532444       -6.1607613302
 H       -17.9063062828      -10.0403709538       -6.8564651521
 H       -17.4873889049       -8.7777914159       -7.8068437575
 H       -14.5784408016       -8.0481107301       -1.6477560257
 H       -12.8712512340       -7.6787979281       -1.8550198201
 H       -13.4891751394       -7.8175741950       -0.2853706412
 H       -11.3281447473      -10.9030024250       -0.5674820264
 H       -11.5733311286       -9.4016428621        0.2038414775
 H       -11.0440146215       -9.3440999717       -1.2888998362
 H       -17.6540517216      -11.0366779990        1.9556590002
 H       -17.7131016501      -12.7018359354        2.4127264388
 H       -19.1263788135      -12.1402547594        2.0014327163
 H       -18.4874759933      -14.5280253700        0.0512885404
 H       -19.0819327713      -13.4531780622       -1.2129872063
 H       -19.8038634192      -13.4294156131        0.3633016531
 Na      -16.1413716840      -11.7980019309       -2.9342675305
 Na        6.5317989253        3.7337423431      -14.0410629000
