232

 C         7.0871540659      -13.3878310978       -2.3512554343
 C         7.2009441720      -11.9085501175       -2.3998855350
 O         6.2262260490      -11.1740965052       -2.5190558790
 C         8.6295267979      -11.1577315901       -2.3252597836
 C         8.5228548183       -9.9721799086       -1.2909050587
 O         8.0540990522       -8.9022543866       -1.6220453894
 C         8.9167774107      -10.2264437623        0.1706063035
 C         7.8451704962       -9.4438492102        1.0789165589
 C         6.4149705224      -10.0872170571        1.1348710909
 O         6.1971759680      -11.2122722655        0.8150511511
 C         5.2778960751       -9.1421253105        1.5470750390
 C         4.5638779386       -8.8061229030        0.1843732048
 O         5.0564864652       -7.9249003751       -0.4957970583
 C         3.5853006809       -9.7158287613       -0.5908164392
 C         2.5572666796       -8.7820059097       -1.3679191408
 C         2.6017500841       -9.1062836523       -2.8877916547
 O         3.5781574852       -9.5512752348       -3.4575098080
 C         1.3027509593       -8.8230086138       -3.8223061603
 C         1.4894018958       -7.2393902121       -4.0108841288
 O         0.7483354919       -6.5290160981       -3.4228673736
 C         2.5777687022       -6.7436937144       -4.9338689306
 C         3.8488126934       -6.1900291922       -4.3889833886
 C         4.9801861867       -6.5246170866       -5.2616912059
 O         5.7549066931       -7.4155176710       -4.8608795798
 C         5.0803012119       -5.8852433685       -6.6666960380
 C         3.8435721570       -5.7744049520       -7.6538512440
 O         3.8534870276       -6.7245672479       -8.4707497715
 C         2.8649271905       -4.6754319699       -7.6024795164
 C         1.7046710251       -4.9208986933       -8.5059287079
 C         0.8370996924       -3.7106190068       -8.7023486558
 O         0.6732551310       -2.8452236668       -7.9122420834
 C        -0.3235255467       -3.8782426649       -9.9111329265
 C        -0.7423468954       -2.3565282538      -10.5147049241
 O        -0.5786791610       -2.0535611048      -11.6838249702
 C        -1.2670137093       -1.3271947148       -9.3746264995
 C        -1.6426634317       -0.0962813689      -10.1405542913
 C        -2.8346413769        0.7603826552       -9.6999507715
 O        -3.9813144364        0.5789062457      -10.1458130383
 C        -2.6565748876        1.8775970618       -8.5592278659
 C        -3.0513352199        3.2846894134       -9.1799589134
 O        -2.1777940143        4.0659469549       -9.5735582131
 C        -4.4629759491        3.5985235004       -9.6014249118
 C        -4.4872082900        4.4567701774      -10.8126083078
 C        -4.6728656491        5.9344611046      -10.4397599014
 O        -4.7352042827        6.3325524333       -9.2863625206
 C        -5.0884825179        6.7928634184      -11.6768988627
 C        -6.6670001318        6.5224124694      -12.0163554878
 O        -6.8305507711        6.0064977431      -13.0568121590
 C        -7.7414436208        6.9347826662      -11.0196429305
 C        -9.2470432569        6.8088353928      -11.3575145860
 C        -9.6419925222        5.9108880513      -12.4855152815
 O        -9.8606528597        4.7538503735      -12.2452124496
 C       -10.1176889281        6.5761344465      -13.8657008226
 C        -9.8301457924        5.4343977816      -14.8903444336
 O       -10.6548906996        4.5923339063      -15.0378834836
 C        -8.4830406340        5.4696784819      -15.6253635666
 C        -8.4961027390        4.4978487465      -16.8139163185
 C        -7.4391973380        3.4255821119      -16.9089121281
 O        -6.3840227827        3.8046128803      -17.3471524052
 C        -7.4914196551        1.8409445058      -16.5918958530
 C        -7.6570471220        1.7820862675      -15.0355991805
 O        -8.6683074848        2.3129029691      -14.5746044651
 C        -6.5918732597        1.0591963035      -14.1219433530
 C        -7.0784231944        0.5269450431      -12.7685943146
 C        -8.0228227085       -0.7039744958      -13.0440870030
 O        -7.9432332399       -1.3612849655      -14.0597490380
 C        -9.2693945884       -1.0861213268      -12.0297117376
 C       -10.3271192535       -0.0957595003      -12.3145645588
 O       -10.2433419149        1.0742735185      -11.9288180287
 C       -11.6189711275       -0.3994064372      -13.2126155799
 C       -11.4332012154        0.2487541446      -14.7035937160
 C       -12.5042110744        1.3573805277      -15.0509065974
 O       -12.6921421729        2.3455228503      -14.3106370358
 C       -13.4769215241        1.1653260068      -16.2364687363
 C       -12.6685996495        1.7619915254      -17.4572511914
 O       -11.6365842193        1.1620691432      -17.7639084726
 C       -13.2557802405        2.8475185856      -18.3697899277
 C       -12.4741751045        3.0265728900      -19.6628451025
 C       -11.6343612643        4.3166799789      -19.7031840682
 O       -11.4491397244        4.9283624408      -18.6802773403
 C       -10.9550822888        4.8380160115      -21.0886271867
 C        -9.7294747085        3.7978606379      -21.0684833221
 O        -8.6681810516        4.1636824163      -20.5847566418
 C        -9.7981447920        2.3947271269      -21.6978191439
 C       -11.7092749231        4.7784126599      -22.4066941960
 C       -10.3634740698        6.2514806455      -20.8218018714
 C       -13.7934046442       -0.3597284135      -16.3720756645
 C       -14.6615961358        2.0739485299      -15.9873293948
 C        -9.7284363135       -2.5521936061      -12.1665770238
 C        -8.6334682415       -0.8434300594      -10.5852055167
 C        -8.7185338222        1.1265034296      -17.2237563761
 C        -6.1092142864        1.2866834628      -17.0434845971
 C       -11.6922044235        6.7266960399      -13.7157892437
 C        -9.4611722381        7.8975183041      -14.1297524527
 C        -4.9658743810        8.2588702016      -11.2395126374
 C        -4.2053705439        6.3762993692      -12.8401517059
 C        -3.6641239568        1.5172030606       -7.4190073385
 C        -1.2242957466        1.7999759514       -7.9934394115
 C         0.1192376556       -4.5756574668      -11.1975039147
 C        -1.5719469841       -4.5685760867       -9.2416855577
 C         5.6566577963       -4.4604736055       -6.4034820022
 C         6.1886534079       -6.6281570388       -7.4290959878
 C         1.3551026217       -9.6099265124       -5.1523011475
 C         0.0591395574       -9.1130699720       -3.0257228333
 C         4.3254487173      -10.0491571250        2.4274837885
 C         5.7303953362       -7.8053420750        2.2473870745
 C         9.8916273065      -12.0609359987       -2.1395480909
 C         8.8421549622      -10.5921385104       -3.7734569088
 H         6.4064002427      -13.7678632363       -3.1151374452
 H         6.5885846822      -13.6008497536       -1.4656917413
 H         8.0660824487      -13.8024960885       -2.4183185324
 H         9.9584290158       -9.9869001078        0.4702226651
 H         8.8742827883      -11.3102689460        0.3176701435
 H         7.8253390702       -8.3905247451        0.7368335873
 H         8.1861965184       -9.4409375011        2.0586680546
 H         2.9957367750      -10.3578874746        0.0871846282
 H         4.1572488544      -10.1308058270       -1.3733939900
 H         2.7332817122       -7.6845321028       -1.3637249063
 H         1.5351904002       -8.8346199906       -1.0290380014
 H         2.0488292340       -6.0229043593       -5.5416076413
 H         2.8972665290       -7.6171295397       -5.5878637987
 H         4.1441111962       -6.5804937428       -3.4499884508
 H         3.8484045204       -5.1243893676       -4.1449458775
 H         3.5161064863       -3.8992999240       -7.9575652635
 H         2.5052823519       -4.3249811041       -6.5626316829
 H         0.9965561971       -5.6957271480       -8.1360630886
 H         2.1492073586       -5.2394561324       -9.4873020808
 H        -0.4785355851       -1.1004902407       -8.6963043832
 H        -2.0360250907       -1.8946270370       -8.8297522631
 H        -1.9641591617       -0.4092591895      -11.1124995669
 H        -0.7633724199        0.4074638449      -10.3298117801
 H        -5.0906429559        4.1888372292       -8.8823085016
 H        -5.0619861643        2.7439207860       -9.8008016146
 H        -5.1971856211        4.0912170327      -11.4745004485
 H        -3.5257359121        4.3287507963      -11.3622711399
 H        -7.6482952644        7.9676360266      -10.7040413682
 H        -7.5177468554        6.4676465963      -10.1181732423
 H        -9.7826862294        7.7137508728      -11.6712848014
 H        -9.7038049686        6.4117708267      -10.4992785721
 H        -7.7494119980        5.1213756483      -14.8712352856
 H        -8.2650678009        6.4741261769      -15.9874560657
 H        -8.4839518589        5.0529095518      -17.7223248288
 H        -9.5457741835        3.9931647044      -16.7201773052
 H        -5.7722670192        1.7673658008      -13.9432278313
 H        -6.3033827972        0.1857530307      -14.7199101519
 H        -7.6826652141        1.2006434119      -12.1433860522
 H        -6.2572707738        0.1952781953      -12.2014468033
 H       -12.4088725756        0.1037758410      -12.6498416744
 H       -11.7198140173       -1.4499575836      -13.4387615062
 H       -11.3198377182       -0.5823193583      -15.4800588588
 H       -10.4554056429        0.7769016862      -14.7701894134
 H       -13.2996173073        3.8164747257      -17.8335825370
 H       -14.2434244116        2.5047123673      -18.5522351910
 H       -13.1570825560        3.0996586658      -20.4610688700
 H       -11.7735946393        2.1662957726      -19.7535688757
 H       -10.6684188279        2.1381809936      -22.3120294665
 H        -9.7826416903        1.8485488510      -20.8129438718
 H        -8.8377911245        2.1787218792      -22.2541226666
 H       -12.6502000984        5.2407878657      -22.3562475501
 H       -11.9222449286        3.7089978200      -22.6164021224
 H       -11.2116555079        5.2025624514      -23.2695272556
 H       -10.1596492502        6.8017739704      -21.8152275073
 H        -9.5241427918        6.2752300576      -20.1449729103
 H       -11.1336175919        6.8824220386      -20.3489987724
 H       -14.6778360410       -0.5670800697      -16.9834995854
 H       -14.1434759078       -0.7458937144      -15.4068539260
 H       -12.9270677121       -0.9214782782      -16.7627122839
 H       -14.2679733204        3.0495196037      -15.7797416001
 H       -15.1538006431        1.6420402775      -15.1061600382
 H       -15.4172469149        2.2303088809      -16.7828149695
 H        -9.8925361677       -2.8241826615      -13.2064794080
 H       -10.6740687990       -2.8381957074      -11.6538971892
 H        -8.9867220374       -3.2485094273      -11.9080583446
 H        -9.3598692736       -1.1930638182       -9.8384340667
 H        -8.4745555096        0.2222507708      -10.4615476440
 H        -7.6805932437       -1.4019633782      -10.6074960716
 H        -8.5572301874        0.0284555159      -17.3174523724
 H        -9.0833462047        1.4864339044      -18.1841814384
 H        -9.7079752019        1.2353507309      -16.5971243551
 H        -6.2645707663        0.2609384384      -17.2912171416
 H        -5.3247169655        1.2246558748      -16.2841283261
 H        -5.7176864742        1.7584518817      -17.9338981207
 H       -12.0536094339        6.8608242415      -12.6869447124
 H       -12.0238931388        5.7019854524      -14.1738515728
 H       -12.0199327169        7.5624783402      -14.2668130272
 H        -8.3820718198        7.8674250691      -14.0693719690
 H        -9.8195464981        8.5867754457      -13.3680439164
 H        -9.8705110795        8.2674457157      -15.0150807468
 H        -5.7808490224        8.5285750322      -10.6338182905
 H        -4.9425700711        9.0348576337      -12.0237375691
 H        -4.0399088108        8.4193677011      -10.6184269580
 H        -4.4270429885        5.3485764613      -13.0612507448
 H        -3.1073453221        6.3329588968      -12.5326880932
 H        -4.3598514254        6.8669944966      -13.7804163445
 H        -4.7710348269        1.5578470452       -7.6713727412
 H        -3.6017129700        2.1474500891       -6.5525960077
 H        -3.4188420633        0.4260864872       -7.1857600838
 H        -1.0079994720        2.6335845975       -7.3189155664
 H        -0.4956936663        1.9199391318       -8.8908645869
 H        -0.9566357498        0.8537624278       -7.4323758330
 H         0.5222932626       -5.6000555737      -10.9824716587
 H         0.7500372092       -3.8705466308      -11.6714207953
 H        -0.7613941082       -4.8096390878      -11.8295230130
 H        -1.4534973313       -5.6470017247       -9.0034333377
 H        -2.4791803539       -4.4670488590       -9.8564638663
 H        -1.8924029238       -4.0967844398       -8.3930060440
 H         6.6871281412       -4.6792279097       -6.0262127447
 H         5.1726871543       -3.9371569321       -5.6035154141
 H         5.7310265289       -3.8688392982       -7.3295279526
 H         6.2044487218       -6.3023848067       -8.4496680468
 H         6.0067334440       -7.6934970145       -7.4676992559
 H         7.0933777645       -6.4834595712       -6.8697465551
 H         2.3088622924       -9.4479510276       -5.5623409988
 H         0.5691853347       -9.2444186868       -5.8293423551
 H         1.3073859806      -10.7612729122       -4.9426392191
 H        -0.1909151003       -8.3456850221       -2.3313335889
 H         0.1667789853      -10.0992617595       -2.4861624180
 H        -0.7862259274       -9.3408029533       -3.6137912036
 H         4.7713904473       -9.8925112825        3.4288971763
 H         4.4186171413      -11.0659971498        1.9608712049
 H         3.3623324252       -9.5818822761        2.4438966733
 H         6.3608444761       -8.1986076867        2.9742778836
 H         4.9383032064       -7.1449874248        2.4605596226
 H         6.3760980861       -7.2463516629        1.5684520064
 H        10.0041314250      -12.6552111245       -3.0293590349
 H         9.7892779531      -12.5657843825       -1.1883995815
 H        10.7337781005      -11.4205736547       -2.0865817076
 H         9.8854396120      -10.3569713358       -4.0201838491
 H         8.1442752553       -9.7578902938       -3.9985112034
 H         8.6125815385      -11.3476024078       -4.5724350822
 Na        5.9429555645       -8.6281806776       -2.8495730607
 Na      -10.5397728430        3.0212165281      -13.2524523039
