232

 C         7.0793777039      -13.2682648218       -2.7130809566
 C         7.2276502852      -11.7056932100       -2.6457006389
 O         6.2403526981      -11.0081374978       -2.7175116287
 C         8.6613210253      -11.1238623841       -2.3877056501
 C         8.5485913002       -9.9543613443       -1.3750933427
 O         7.9261817560       -8.9598938678       -1.7418766441
 C         8.8257234367      -10.1870896850        0.1669872324
 C         7.8537465779       -9.4201054517        0.9992196509
 C         6.4916296928      -10.0564396832        0.9454164551
 O         6.4012452461      -11.2194650926        0.5050314535
 C         5.2209141038       -9.1927686353        1.4986408069
 C         4.6790670239       -8.7348372998        0.1648111917
 O         5.3020586161       -7.9543979344       -0.5276076177
 C         3.4371760591       -9.4735175812       -0.2487212924
 C         2.5721161237       -8.7512665893       -1.2093286939
 C         2.6600636271       -9.1468216768       -2.6737206130
 O         3.7112523522       -9.6393260283       -3.1225216955
 C         1.5256896916       -8.7644038917       -3.5640147713
 C         1.6272206877       -7.2354948129       -3.8171474031
 O         0.9795854590       -6.3860130976       -3.2150557630
 C         2.4613595925       -6.7686746730       -5.1124413584
 C         3.8595836636       -6.1335997976       -4.6006516649
 C         5.0210218760       -6.6065066148       -5.4764779155
 O         5.7267567785       -7.5080928953       -5.0587655539
 C         5.2948375977       -5.8113087045       -6.8598317737
 C         3.9887141482       -5.7954340935       -7.7240396311
 O         3.7337955140       -6.7149193179       -8.4048068710
 C         2.9164349349       -4.5524715954       -7.7628456697
 C         1.8401047051       -4.9047766865       -8.7893883705
 C         0.7483843069       -3.8042173728       -8.9019536730
 O         0.7824382534       -2.8015927000       -8.1429374975
 C        -0.4127164118       -3.9468450741       -9.8224725155
 C        -0.7563834274       -2.4205329878      -10.3852272128
 O        -0.4990552550       -2.0280506771      -11.5001816276
 C        -1.5994476400       -1.3923258717       -9.3619867490
 C        -1.6705319041       -0.0398662721      -10.1572004929
 C        -2.8403279211        0.7568715546       -9.6534017705
 O        -3.9693545817        0.4818115750      -10.0497577167
 C        -2.6651664710        1.7764317502       -8.3989847447
 C        -3.0313926348        3.1864914616       -9.0554197452
 O        -2.1051390088        3.8962534775       -9.3426821805
 C        -4.5093761953        3.3732005108       -9.3705504539
 C        -4.8249745410        4.2447695248      -10.7603013099
 C        -4.8296235787        5.7989006278      -10.5158544458
 O        -4.6419762292        6.3293548289       -9.4647235824
 C        -5.2222320110        6.7259948771      -11.7998385487
 C        -6.7503259497        6.5984993623      -12.0465180934
 O        -7.2089251217        6.1185916160      -13.1402738185
 C        -7.6514604981        6.6606490396      -10.7874138016
 C        -9.1113866609        6.8526240227      -11.1135966684
 C        -9.5763734628        5.9253743267      -12.3793310099
 O        -9.7615171454        4.7802357839      -11.9801798095
 C       -10.0073971621        6.4555475299      -13.7619316431
 C        -9.8964149256        5.4196260465      -15.0180825382
 O       -10.8286942445        4.5713939627      -15.0875006212
 C        -8.5625496707        5.1987676659      -15.7943474489
 C        -8.7296123329        4.0837865935      -16.9051782659
 C        -7.3483029163        3.4127984743      -16.9996934473
 O        -6.3815797461        3.9878275428      -17.4271753628
 C        -7.3313224938        1.9382628612      -16.3952189161
 C        -7.4505583065        2.0058046732      -14.8201379714
 O        -8.3983185777        2.4944594454      -14.2761816100
 C        -6.4409443328        1.2303512926      -13.9107616398
 C        -7.1669729218        0.4980725258      -12.8349730478
 C        -8.1468128749       -0.7313846179      -13.2759648269
 O        -8.1374217438       -1.4189990531      -14.2708018652
 C        -9.3018055754       -0.8967593044      -12.1893943015
 C       -10.4287969310        0.1385932045      -12.4278263232
 O       -10.2201766177        1.2571211732      -11.9566864919
 C       -11.6470567493       -0.2394598319      -13.2306323217
 C       -11.5616677583        0.3249434658      -14.6611967016
 C       -12.5731389594        1.4813841403      -14.9807734583
 O       -12.4445012283        2.5085411585      -14.3636755418
 C       -13.6386111855        1.1925543188      -16.1792803834
 C       -12.6977956021        1.6845274744      -17.4392069274
 O       -11.7131878437        1.0714193035      -17.7660044725
 C       -13.2585256848        2.8938375307      -18.2257318312
 C       -12.7296339805        3.1488031013      -19.6968323272
 C       -11.5901382594        4.3269972178      -19.6354987733
 O       -11.3959428243        4.8943143996      -18.5729789219
 C       -10.8683426598        4.7680014562      -20.9057680464
 C        -9.6204634703        3.7411294293      -21.1253019149
 O        -8.5113846458        3.9669996016      -20.6781542396
 C        -9.7681434390        2.5497965322      -22.1171889231
 C       -11.9635650849        4.6838497943      -22.0403049691
 C       -10.3367404551        6.2048086356      -20.7983597644
 C       -13.9390925354       -0.2434953346      -16.4813303533
 C       -14.9790079973        1.9419593167      -15.9183476891
 C        -9.7472617579       -2.3116490108      -12.2793311795
 C        -8.7881265026       -0.7572740702      -10.7154015293
 C        -8.4973165248        1.1111116520      -16.9884221215
 C        -5.9810660823        1.1820894801      -16.9575998790
 C       -11.5599947076        6.7821299996      -13.5433757978
 C        -9.2970868538        7.7674916522      -14.1322097310
 C        -4.7733983071        8.1624986741      -11.4306859289
 C        -4.4079093659        6.3534387063      -13.0705266219
 C        -3.7001298262        1.5017809529       -7.2946847952
 C        -1.2836685358        1.9367909258       -7.8199638831
 C        -0.0079733206       -4.7806282141      -11.1482426082
 C        -1.7681217862       -4.5832685338       -9.2778339671
 C         5.7429075837       -4.3641827516       -6.5092355573
 C         6.4526098285       -6.5227817821       -7.5219015060
 C         1.6394856070       -9.5615217276       -4.9353950227
 C         0.1170267521       -9.1321383494       -2.9513576782
 C         4.2560762971      -10.1077861115        2.3203883996
 C         5.6296411638       -8.0883017058        2.5054675870
 C         9.7784698211      -12.2008619525       -1.9474137130
 C         8.9052040834      -10.4191249718       -3.8623880980
 H         6.2200523713      -13.5069792369       -3.3399304588
 H         6.7316095888      -13.6034076051       -1.6466955367
 H         7.9998823315      -13.7779071600       -3.1206976761
 H         9.8593822537       -9.8885000747        0.4709913208
 H         8.7968293621      -11.2597615025        0.4782776864
 H         7.7446066369       -8.4144283165        0.5580714333
 H         8.2711617693       -9.3856140146        2.0755934949
 H         2.7899018980       -9.5492253853        0.5787624448
 H         3.8510024855      -10.4076166233       -0.7463299179
 H         2.7814089418       -7.7058959843       -1.2001049379
 H         1.5395089566       -8.8519275440       -0.8641908252
 H         1.8921083433       -5.9653386742       -5.6536776592
 H         2.7216140626       -7.5663253883       -5.7654578493
 H         4.2689743136       -6.5252653103       -3.6038004448
 H         3.8208711913       -5.0418919803       -4.4420956674
 H         3.4150239781       -3.5653977064       -8.0291985205
 H         2.6402582028       -4.4182417129       -6.7723136299
 H         1.3758289768       -5.8948382464       -8.6304956977
 H         2.4178997804       -4.9710821440       -9.6944094357
 H        -1.1098494002       -1.3494019084       -8.3637770040
 H        -2.5748515570       -1.8846877060       -9.2342778902
 H        -1.8913722178       -0.3021315724      -11.2605434228
 H        -0.6526199420        0.5122567061      -10.1282715771
 H        -4.9394625527        3.8360478926       -8.4859301239
 H        -5.1493137937        2.4419745058       -9.5301240060
 H        -5.8974248406        3.9581668983      -11.0832908884
 H        -4.1886040563        3.8179377630      -11.4992457888
 H        -7.4108584289        7.4106181961      -10.0181528075
 H        -7.4746636119        5.6389928247      -10.3229621701
 H        -9.4460261918        7.8731594239      -11.2113040404
 H        -9.8238216061        6.4291538690      -10.3093578943
 H        -7.8699097227        4.7820729889      -15.0551004837
 H        -8.1913077010        6.1190629626      -16.2565693262
 H        -9.0530122241        4.6912267866      -17.8316531464
 H        -9.5342303661        3.4756587495      -16.6514381377
 H        -5.7413845404        2.0144610124      -13.5678322521
 H        -5.9439593060        0.4451730079      -14.4607510437
 H        -7.9012089134        1.1143176447      -12.2497466227
 H        -6.4424823931        0.0359541858      -12.0470061473
 H       -12.4355241333        0.3072244650      -12.7045814645
 H       -11.7627273688       -1.3298434094      -13.3122411861
 H       -11.6871975154       -0.4610962479      -15.3293836974
 H       -10.5992779328        0.7527817325      -14.9632350029
 H       -13.0041314714        3.7831907413      -17.6372356420
 H       -14.3813711019        2.7672634876      -18.2310356669
 H       -13.6263057770        3.6314830251      -20.1897474273
 H       -12.3120131695        2.2444509740      -20.1493426907
 H       -10.7954526749        2.3593855235      -22.3301365296
 H        -9.1014561995        1.6244280423      -21.9890811095
 H        -9.4282590005        3.1019732064      -22.9415333150
 H       -12.7073365473        5.5194683215      -21.8868648099
 H       -12.4633058100        3.7301445543      -22.1979585285
 H       -11.5504197981        4.7809896789      -23.0902696980
 H        -9.4521182260        6.3767202026      -21.2890757200
 H       -10.1853994852        6.4066147672      -19.7478854984
 H       -10.9855755128        6.9541884706      -21.2315274157
 H       -14.7838878502       -0.2638883753      -17.1920659249
 H       -14.3019868300       -0.8142434070      -15.6228072932
 H       -13.0508269566       -0.6490019987      -16.9803280922
 H       -14.8767186159        3.0560576077      -15.9251055148
 H       -15.4802619000        1.5266655108      -15.0645982703
 H       -15.5999358555        1.7547631070      -16.7620640699
 H        -9.7448366181       -2.7052162298      -13.3055566830
 H       -10.7430932634       -2.5057868656      -11.9082160304
 H        -9.0755285064       -3.0859202057      -11.8003626987
 H        -9.4215856294       -1.4073371455      -10.1901434456
 H        -8.8604346159        0.2771511417      -10.3033664859
 H        -7.7891159912       -1.1004720564      -10.7331979888
 H        -8.3081693328        0.0249845753      -16.9506699448
 H        -8.7611176655        1.3645511769      -18.0387108227
 H        -9.3757885300        1.3181404300      -16.5439883834
 H        -5.6536528512        0.3316105279      -16.3381503929
 H        -5.1105817336        1.8605169806      -17.0039087470
 H        -6.1171585464        0.8676684707      -17.9850746001
 H       -11.7356728061        6.9767117871      -12.4900062045
 H       -12.1929970900        6.0705531264      -13.9155744120
 H       -11.6510944788        7.7702268984      -14.0695507213
 H        -8.2938481647        7.4174168952      -14.3031145946
 H        -9.1999079633        8.5848473150      -13.4053798604
 H        -9.7413618705        8.1986813846      -15.0578922987
 H        -5.4058009846        8.7615892595      -10.7401398238
 H        -4.7183713079        8.7437142303      -12.3376202855
 H        -3.7953110141        8.0896037368      -11.0764590899
 H        -4.4825343910        5.3530302657      -13.5400705622
 H        -3.3771110982        6.4564918735      -12.8716678154
 H        -4.7115546080        7.0431446742      -13.9004675740
 H        -4.6540326678        1.2950696155       -7.6762473211
 H        -3.8356195217        2.4565244122       -6.7132538608
 H        -3.4821383573        0.6718229300       -6.6446282484
 H        -1.3124754908        1.9086439260       -6.7501547670
 H        -0.8217463848        2.8078940642       -8.1172502241
 H        -0.6869028186        1.1407589811       -8.1082332026
 H         0.1642900118       -5.8023728063      -10.9772098292
 H         0.7378880020       -4.1576228211      -11.6793496429
 H        -0.8825539000       -4.8493790921      -11.7197965414
 H        -1.7847904147       -5.6294322020       -9.3255648176
 H        -2.6124230423       -4.2971615041       -9.8713951558
 H        -2.0523001433       -4.3062841992       -8.1872030392
 H         6.4747445563       -4.3053486485       -5.7576127783
 H         4.8341990158       -3.7931448994       -6.2191418508
 H         6.1632154269       -3.9621417194       -7.4080958393
 H         6.9225209713       -5.9118331254       -8.3333577489
 H         6.0649240012       -7.3958915948       -8.0919596675
 H         7.1059414585       -6.8860941337       -6.7063174033
 H         2.6486751989       -9.9614414828       -5.1866353484
 H         1.2497453080       -8.9834100527       -5.7620164441
 H         1.1115982016      -10.4207243185       -4.7258562210
 H        -0.1326695577       -8.5479980188       -2.0236770884
 H        -0.0187978289      -10.1610195713       -2.7756741311
 H        -0.6963058280       -9.0179031502       -3.7132248898
 H         4.8601466914      -10.4720692193        3.1067655052
 H         3.9104126194      -10.7863675187        1.6278688643
 H         3.4826866372       -9.4394741594        2.7802200770
 H         6.2307253693       -8.5704588501        3.3619296571
 H         4.6515401658       -7.5615760602        2.8006444437
 H         6.1298257841       -7.3305933504        1.9022058966
 H        10.0063741792      -12.8352235171       -2.8075991274
 H         9.3898470251      -12.6696275935       -1.0665951060
 H        10.6753756465      -11.5906446479       -1.7420624298
 H         9.8875202113       -9.9903116918       -3.9025561012
 H         8.1208384561       -9.6748160800       -3.9761278562
 H         8.8976729542      -11.0130284505       -4.7574316294
 Na        5.8591532004       -8.6500222360       -2.7736661095
 Na      -10.5082506853        2.8584290164      -13.4645267388
