232

 C         7.0092171373      -13.1336654467       -3.2062994571
 C         7.1934770695      -11.6109281708       -3.0216405807
 O         6.1876791642      -10.9297507097       -3.2665658310
 C         8.5826295816      -10.9680654538       -2.5292032718
 C         8.3994050009       -9.8480783578       -1.4671718128
 O         7.7943414899       -8.8818786126       -1.8108552011
 C         8.9302532634       -9.8894517607       -0.0885414517
 C         8.0645414378       -9.3601839258        1.0538352950
 C         6.6903548792      -10.0946156679        0.8602665702
 O         6.5705652730      -11.1928824491        0.2846520538
 C         5.4197912818       -9.4486849961        1.6253058305
 C         4.5894949555       -8.8610207616        0.3990757150
 O         5.1852029638       -8.2188181581       -0.4589650104
 C         3.0770991061       -9.1638146714        0.1141796890
 C         2.5401796004       -8.2372670198       -1.0344478129
 C         2.6074875070       -8.9994776035       -2.4228894293
 O         3.6109741525       -9.5037495689       -2.8947990821
 C         1.4708849363       -8.6911407791       -3.5541349956
 C         1.7448152213       -7.2313693302       -3.8789128368
 O         1.6317498533       -6.3616892161       -2.9742334465
 C         2.4174328930       -6.7907282824       -5.1655281066
 C         3.7673584554       -5.9980182110       -4.8203600420
 C         4.9885242823       -6.5901899766       -5.6490163297
 O         5.6651036571       -7.4092218198       -5.1044188297
 C         5.2636839175       -5.7175084673       -6.9188330593
 C         4.0835923599       -5.8783186532       -7.8465011360
 O         3.7385378946       -7.0033432861       -8.1203531944
 C         3.2562545974       -4.5078334817       -8.3145066634
 C         2.0413668544       -4.8644493707       -9.1734217900
 C         0.8687692557       -3.8113474686       -9.0288245307
 O         0.8390621866       -2.9975194071       -8.0842208688
 C        -0.3874595513       -3.8855934506       -9.8811829001
 C        -0.6981980691       -2.4938918045      -10.4365935490
 O        -0.1462953389       -2.1527805766      -11.4625375702
 C        -1.8468725255       -1.6475445791       -9.7609915800
 C        -1.6860143728       -0.1548246809      -10.0010798399
 C        -3.0018950925        0.5969557148       -9.3458066380
 O        -4.0925757331        0.3906660373       -9.7242503067
 C        -2.7937441489        1.8090882187       -8.1841514235
 C        -3.1643350274        3.0769747009       -8.9393625905
 O        -2.3518181031        3.8059954704       -9.4449708171
 C        -4.6833219625        3.3097165239       -9.2444698162
 C        -4.7357687413        4.0714462603      -10.6369493034
 C        -4.7788633122        5.5937055663      -10.5244243130
 O        -4.4959151003        6.0650122132       -9.4657629316
 C        -5.2120264091        6.4452741072      -11.7833369713
 C        -6.7767537944        6.2364529279      -11.9446778507
 O        -7.2653082647        5.9988550588      -13.0513571889
 C        -7.6437702620        6.4786448360      -10.7497513952
 C        -9.0223320842        6.9007994775      -11.2865281811
 C        -9.4208396588        5.9493911023      -12.4851762579
 O        -9.3547698351        4.7076488861      -12.1574692459
 C       -10.0474516593        6.6357577499      -13.7804867898
 C       -10.0210345586        5.4709499356      -14.9498304687
 O       -10.9252881637        4.6771984453      -14.9712865682
 C        -8.7319954982        5.2977344269      -15.8318730264
 C        -8.7884837616        3.9831098022      -16.5967195046
 C        -7.3858992558        3.4059794324      -16.8510143243
 O        -6.4476096478        4.0167993337      -17.3010427061
 C        -7.1031272354        1.8879207258      -16.3523674236
 C        -7.2354706877        1.9130647607      -14.8079351676
 O        -8.0025997201        2.6597603447      -14.2219173772
 C        -6.3416878771        0.9548161575      -13.9035426108
 C        -7.1597889249        0.5968259452      -12.6507792270
 C        -8.2481501121       -0.4089817294      -13.0767919429
 O        -8.3224995658       -0.7588178298      -14.2349700508
 C        -9.3688044794       -0.9362181731      -12.1300431106
 C       -10.3273009046        0.2558000332      -12.4904334784
 O       -10.1193588965        1.4019312584      -12.1395284727
 C       -11.7028336500       -0.0392417502      -13.2629730361
 C       -11.6214312480        0.2789625009      -14.7822179731
 C       -12.7061446547        1.4316064094      -15.0624364216
 O       -12.6578544664        2.4108353313      -14.3765276033
 C       -13.8232694945        1.1879075258      -16.1950939198
 C       -12.9713490046        1.7292332998      -17.4760776164
 O       -12.0748269873        1.0855038758      -17.9469490182
 C       -13.3673091446        3.1579153585      -18.1410879375
 C       -12.6920709354        3.3652868669      -19.5051928732
 C       -11.4808794551        4.3266207246      -19.5183738795
 O       -10.9642429200        4.7951617464      -18.4743427248
 C       -10.9744399912        4.6975845726      -20.8538885055
 C        -9.7536440707        3.6315065374      -21.2551616506
 O        -8.7932688388        3.5039342422      -20.5250112083
 C        -9.8265313675        2.9217712676      -22.5282365158
 C       -12.0562649110        4.6883161555      -21.8769328586
 C       -10.3239099777        6.0766083937      -20.6859659690
 C       -14.2095163915       -0.2731496803      -16.4266068622
 C       -15.1470473674        1.8443242396      -15.9389048212
 C        -9.9212586454       -2.2966651639      -12.6005508700
 C        -8.9868094619       -1.0154135409      -10.6600733189
 C        -8.0974058500        0.7790497215      -16.8526130492
 C        -5.7203649100        1.5226219456      -16.9876030818
 C       -11.5101635894        6.9813543484      -13.3624039755
 C        -9.2361139445        7.9330548875      -14.2446211856
 C        -4.8759144749        7.9579976900      -11.7224847082
 C        -4.6803631764        5.8932953352      -13.1263745107
 C        -3.8531312078        1.5373718758       -7.1746917059
 C        -1.3670630029        1.9344519241       -7.5605966337
 C        -0.2288601094       -4.9405917791      -11.0224497833
 C        -1.4455584765       -4.3644299642       -8.8180292732
 C         5.5906363215       -4.2556094669       -6.5326633972
 C         6.4166137542       -6.3683741000       -7.6350060613
 C         1.8342627889       -9.7785480457       -4.6482626581
 C         0.0018214285       -9.0119718908       -3.1645371641
 C         4.8227995672      -10.5548486109        2.5683896025
 C         5.7663669146       -8.2191139581        2.5029991906
 C         9.4896037288      -12.1547051730       -1.9187911536
 C         9.3479765614      -10.3178624042       -3.7609315584
 H         5.9645030334      -13.2589002325       -3.1679935841
 H         7.4757610209      -13.7716522376       -2.4470701040
 H         7.2402081161      -13.3469570405       -4.2038882658
 H         9.9043812691       -9.3631303384       -0.0650676297
 H         9.1088288014      -10.9479796087        0.2665475008
 H         8.0364285220       -8.3151503842        1.0734641070
 H         8.3878596578       -9.8294327956        1.9637582401
 H         2.4842197267       -8.9268706800        1.0104474588
 H         3.0946574892      -10.2120502832       -0.1842171310
 H         3.1690736880       -7.3835473171       -1.1317854305
 H         1.4913652780       -7.9336514825       -0.8623759447
 H         1.7436106724       -5.9859680143       -5.5255263405
 H         2.5056510703       -7.5488748200       -5.9391822508
 H         4.0570465839       -6.2691896828       -3.7850954440
 H         3.7002410788       -4.9339634598       -4.9639305607
 H         3.9699154234       -3.9433671291       -8.9113478149
 H         3.0871036072       -3.7971749785       -7.4358789906
 H         1.7340132635       -5.9184086101       -9.0531211200
 H         2.2467515907       -4.7913661261      -10.2859548908
 H        -1.9861686212       -1.9916143100       -8.7292996804
 H        -2.6959648286       -1.9408590977      -10.2572006600
 H        -1.7354508034        0.0780772314      -11.0288715644
 H        -0.8288930152        0.2968448761       -9.4881406457
 H        -5.3016961621        3.9434434939       -8.5449259023
 H        -5.2599705504        2.3945394971       -9.3993144912
 H        -5.5125544088        3.6662406477      -11.2303513780
 H        -3.7762693709        3.8594766151      -11.0584437818
 H        -7.1948236850        7.1636169975      -10.1385303430
 H        -7.7533014893        5.5526462484      -10.2275587814
 H        -9.1775181312        7.9258842165      -11.5711428245
 H        -9.8764038473        6.8307767081      -10.6005625969
 H        -7.8284021648        5.2694948268      -15.3176855524
 H        -8.7294523747        6.2161057063      -16.5356377231
 H        -9.3047282755        4.2714486802      -17.5907102092
 H        -9.5209499337        3.2775525543      -16.1579146369
 H        -5.4736224070        1.4393681603      -13.5520154165
 H        -6.0378025475        0.1091667121      -14.6084828776
 H        -7.5439301360        1.5157390820      -12.2578107708
 H        -6.5597791024        0.1217194654      -11.8347073625
 H       -12.4397820934        0.6253337898      -12.7508193027
 H       -11.9376112492       -1.0836651120      -13.0529952593
 H       -11.7389971878       -0.5410236556      -15.5314900247
 H       -10.6322441411        0.7774340984      -14.9724073809
 H       -13.2520988426        3.9477286532      -17.4052615573
 H       -14.3939888838        2.9801476611      -18.4054655452
 H       -13.5302173348        3.7518907772      -20.1117796721
 H       -12.2903696940        2.4443529458      -19.7952624976
 H        -9.9832473133        1.8647909471      -22.2351962396
 H        -8.7929600281        3.0445700213      -22.9509237276
 H       -10.4899645791        3.2204215028      -23.2760807951
 H       -12.9657749322        5.1795853640      -21.6335290749
 H       -12.3094196481        3.7279007561      -22.2317031481
 H       -11.7225661613        5.0811870284      -22.7835877159
 H        -9.2762313796        6.0460925995      -20.8827053095
 H       -10.3145991724        6.3209502640      -19.5661825800
 H       -10.6319778820        6.9350730251      -21.3110317137
 H       -14.8721002022       -0.2863097715      -17.2848557569
 H       -14.7883863289       -0.6769965510      -15.5281932266
 H       -13.3668305060       -0.8910765146      -16.6669953756
 H       -15.0138393189        2.9205789105      -15.7699347570
 H       -15.4146395985        1.4576083460      -14.9490720421
 H       -15.9557908446        1.7180380462      -16.6840174576
 H       -10.7175925341       -2.4202203040      -13.3397083976
 H       -10.2470611320       -2.8027001490      -11.7198535834
 H        -9.1233813593       -2.9777842426      -12.9748922765
 H        -9.9403760033       -1.1230907200      -10.0738217459
 H        -8.4204395352       -0.1108856270      -10.4306188170
 H        -8.4027257774       -1.9407352597      -10.5534469020
 H        -7.8623382193       -0.2705036352      -16.4847820193
 H        -7.9251385401        0.6190279484      -18.0048747307
 H        -9.1438045353        0.9277594481      -16.7856014523
 H        -4.9193099611        1.7661772043      -16.2731817348
 H        -5.5808494088        2.0620059698      -17.8722618901
 H        -5.6407350321        0.4674425705      -17.3080264006
 H       -11.6535032662        8.0648431090      -13.1525056999
 H       -11.7409389589        6.4388107772      -12.5020626893
 H       -12.1607039123        6.4990970250      -14.1873794457
 H        -8.1786108174        7.8102532924      -14.4416629711
 H        -9.3437513740        8.6571812585      -13.4911453050
 H        -9.7161072729        8.3585318657      -15.1508804636
 H        -4.7633483062        8.3620350296      -10.6504707005
 H        -5.6707504460        8.5293806553      -12.1794226969
 H        -3.9639520914        8.1607546688      -12.2586800850
 H        -5.0009051990        4.8626574759      -13.3926135729
 H        -3.6452097505        5.8721618174      -13.2947154692
 H        -5.0884699825        6.5441801033      -13.9125390573
 H        -4.7745915027        1.1636152963       -7.6614569109
 H        -4.0774953693        2.2814784478       -6.3200376494
 H        -3.5397541145        0.6648517863       -6.6213393377
 H        -1.4345910443        2.1422798090       -6.4051297625
 H        -0.8545953767        2.8164344925       -8.0082938520
 H        -0.6980527005        1.0310365692       -7.7336024863
 H        -0.0304257687       -5.9241489601      -10.6388802777
 H         0.5510616402       -4.4848130733      -11.6928500064
 H        -1.1829291203       -5.0523447330      -11.5895456835
 H        -1.0714221089       -5.1165184924       -8.1510761580
 H        -2.2912729405       -4.8639690558       -9.2225681632
 H        -1.7364084210       -3.5695365919       -8.0679056161
 H         6.6401957915       -4.2589839135       -6.2102618777
 H         4.8753265761       -3.7984758766       -5.8476341924
 H         5.6477625313       -3.6333632698       -7.4461057208
 H         6.6233892757       -5.8499686684       -8.5320727899
 H         6.2369778609       -7.3760921684       -7.9067876614
 H         7.2913700962       -6.3154674143       -6.9920438425
 H         2.7238716633       -9.6347800969       -5.3704658625
 H         0.9791682668       -9.9341229438       -5.3227585482
 H         2.0186822658      -10.6347292977       -4.0937947370
 H        -0.4445198850       -8.1368849227       -2.7346101677
 H        -0.2275331383       -9.8507238744       -2.5588000315
 H        -0.5817973616       -9.1969488816       -4.0841677164
 H         5.5029228321      -10.5180827575        3.4347071230
 H         4.8727810913      -11.4512593021        1.9409349828
 H         3.7900290458      -10.2180960223        2.7649395611
 H         6.3093609382       -8.5668903605        3.3762456308
 H         4.8835599339       -7.9974468207        3.0761066710
 H         6.1443492016       -7.4286088732        1.9271156745
 H         9.5679402301      -12.8226152673       -2.7313645188
 H         9.0189914176      -12.6988745589       -1.1138247537
 H        10.4481146559      -11.6619152578       -1.7674119525
 H        10.3449490062       -9.8471785376       -3.4742977487
 H         8.7524740482       -9.6057084213       -4.3491495071
 H         9.6043592416      -11.1325888345       -4.4574135936
 Na        5.7735916218       -8.5527221117       -3.0379052207
 Na      -10.4932237428        3.1466193450      -13.4728611263
