232

 C         7.0463159855      -13.0502309838       -3.3801572450
 C         7.1638959644      -11.5729876916       -3.0962586460
 O         6.4050190725      -10.7410931234       -3.5062810580
 C         8.5584796445      -11.0735457524       -2.5518359129
 C         8.3383203982       -9.8591974572       -1.4909588510
 O         7.7114941792       -8.8755610441       -1.8726310905
 C         9.0806508988       -9.8503224470       -0.1025140388
 C         8.0872727296       -9.3536075222        0.9367953327
 C         6.7308421688      -10.1280731366        0.9196958643
 O         6.7064941843      -11.1544198034        0.2252788818
 C         5.4361164380       -9.5208340485        1.5754247378
 C         4.5426238241       -8.9556156669        0.3061011952
 O         5.1352104389       -8.2807485072       -0.4919227017
 C         3.0174650047       -9.0718244281        0.2683245535
 C         2.5059141245       -8.3072354162       -0.9333264788
 C         2.5908270032       -8.8978205622       -2.3831776036
 O         3.6444033664       -9.5176232068       -2.7092910399
 C         1.4984250280       -8.7600093849       -3.4245562118
 C         1.7669025525       -7.1816348184       -3.8175877627
 O         1.6626061261       -6.3303873152       -3.0063255273
 C         2.4003007506       -6.8891351761       -5.2145167157
 C         3.6753759171       -6.0043486431       -4.7624023569
 C         4.9663462718       -6.4088566179       -5.5176856218
 O         5.7112542000       -7.3458570555       -5.2288522608
 C         5.3077744702       -5.7104700309       -6.8580932849
 C         3.9565415339       -5.8634909412       -7.8523193328
 O         3.4833755575       -6.9344353135       -8.1413618974
 C         3.3862242874       -4.6087675197       -8.4688045860
 C         2.1573754381       -4.8088148914       -9.2524745493
 C         0.9956428072       -3.8066680963       -9.0132886144
 O         1.0113523011       -3.0989731922       -8.0234926320
 C        -0.3873535584       -3.9952720419       -9.8532207542
 C        -0.7852012605       -2.4980142260      -10.5094194349
 O        -0.0843457262       -2.0342338868      -11.3703719606
 C        -1.9219686177       -1.6294162672       -9.8412756788
 C        -1.7343650840       -0.0914774094       -9.9643046034
 C        -2.9245625636        0.5799527873       -9.2737507964
 O        -4.0192884024        0.1915703997       -9.7207124944
 C        -2.8970327139        1.6725282336       -8.1871105066
 C        -3.2485340571        2.9960491004       -9.0058724594
 O        -2.3037907227        3.7124985117       -9.3977825656
 C        -4.6212238004        3.2890068312       -9.3060424209
 C        -4.6727758548        4.0047184171      -10.7062915084
 C        -4.7371333450        5.5710512144      -10.4849013879
 O        -4.4558773860        6.1276313532       -9.4593683035
 C        -5.2371347457        6.2706593767      -11.8407241001
 C        -6.7614616540        6.2244827434      -11.9982442808
 O        -7.1888515863        5.8390397624      -13.1199978654
 C        -7.7521532643        6.5451971776      -10.8250249848
 C        -9.1323546187        6.9407352065      -11.1994425703
 C        -9.4644314257        6.1021008761      -12.5173449613
 O        -9.4173222103        4.8690262612      -12.3938044110
 C       -10.0642698786        6.6665228965      -13.7580700030
 C        -9.9293179370        5.5278541615      -14.9376701138
 O       -10.9127609201        4.7813430439      -15.0252403372
 C        -8.7881700790        5.2852645383      -15.8441743015
 C        -8.8145997520        3.8710994036      -16.6093175992
 C        -7.4326441141        3.3416550304      -16.7937098045
 O        -6.5743855454        4.1056886019      -17.1905035728
 C        -7.0273406692        1.9063096460      -16.3422369423
 C        -7.2037925752        1.8867944611      -14.7805782898
 O        -7.9570187274        2.6021787302      -14.1857502174
 C        -6.3030705292        0.9704337610      -13.9464869396
 C        -7.0991278702        0.5425790753      -12.7267097376
 C        -8.2395745299       -0.4311768674      -13.1011336282
 O        -8.4014189105       -0.6953927474      -14.2879344325
 C        -9.4244047004       -0.8697565323      -12.0883231811
 C       -10.4307600896        0.2706972934      -12.3953692688
 O       -10.0809932511        1.4225041501      -12.1866702410
 C       -11.7003439868       -0.0302502730      -13.2273202381
 C       -11.7563869022        0.2696542075      -14.6994351474
 C       -12.7759851023        1.4099804484      -15.0119712411
 O       -12.7076589279        2.4688296360      -14.4041826874
 C       -13.8007535644        1.2673387728      -16.1178832256
 C       -13.0152176526        1.7324983786      -17.4313590063
 O       -12.2650103179        0.9261091858      -17.9494585773
 C       -13.3922792652        3.0962682199      -18.0647302614
 C       -12.7834264610        3.3554790821      -19.4665416504
 C       -11.4483635129        4.2787044980      -19.4731210730
 O       -10.9944990327        4.6255644381      -18.4213802560
 C       -10.8785063240        4.7622941033      -20.9287433921
 C        -9.7299502666        3.6970107538      -21.2829644533
 O        -9.0119136438        3.3387911892      -20.3522054580
 C        -9.7796160856        2.9057105513      -22.6654179861
 C       -12.1031682976        4.8519969139      -21.8803553384
 C       -10.2207789348        6.2196423780      -20.8375831480
 C       -14.1044391956       -0.2276999663      -16.4470162166
 C       -15.1437579518        1.9157800438      -15.9269716299
 C        -9.8107479319       -2.2838984608      -12.7295225456
 C        -9.1145871581       -1.0883028364      -10.5713033282
 C        -7.9545181643        0.8582366919      -16.9320199565
 C        -5.6020690703        1.5774309322      -16.7936565415
 C       -11.4850827679        6.9818914933      -13.3460999762
 C        -9.3420281607        8.0383497043      -14.1348741878
 C        -4.8432830942        7.7638713971      -11.6797694979
 C        -4.4645948442        5.6620666183      -13.0338398640
 C        -3.9033561253        1.5395307131       -6.9694902108
 C        -1.5073207784        1.9937546946       -7.6100465995
 C        -0.3614362409       -5.0446997845      -10.9664690957
 C        -1.3276237964       -4.4502786026       -8.7370015780
 C         5.6229822774       -4.1947809460       -6.6775765984
 C         6.5778717640       -6.3778972578       -7.5998725340
 C         1.8661694783       -9.6909302854       -4.5909317642
 C        -0.0034545710       -8.9388715869       -3.0594166070
 C         4.8206715474      -10.5927559425        2.4551786222
 C         5.7822758269       -8.2540426154        2.4630194189
 C         9.4743380880      -12.1497314070       -1.9080357083
 C         9.1996654739      -10.3261453784       -3.7240206647
 H         5.9945940801      -13.2517297629       -3.3186427295
 H         7.5925869174      -13.6914964508       -2.6383797004
 H         7.2582602331      -13.2007546806       -4.4517545964
 H         9.8199800776       -8.9603958677       -0.0862690754
 H         9.6249289335      -10.7744454762        0.1979827448
 H         7.9297041099       -8.4025645988        0.4682998800
 H         8.4503814784       -9.2847966701        1.9834314734
 H         2.6417637098       -8.6160911662        1.1505912017
 H         2.7791087401      -10.1915342319        0.2077178509
 H         3.1041132148       -7.4540492595       -0.9990305373
 H         1.4971954525       -8.0663524243       -0.7619011999
 H         1.6877468741       -6.2326569369       -5.7727983602
 H         2.6193072893       -7.7267312234       -5.8359659904
 H         3.7672729808       -6.1593242942       -3.6456079138
 H         3.6038187264       -4.9601605076       -5.0491254768
 H         4.2110534351       -3.9474370760       -8.9285375263
 H         3.1133467470       -4.0318615676       -7.6273963289
 H         1.7335456768       -5.8011603079       -8.9381361846
 H         2.1497917088       -4.9274916074      -10.3232377304
 H        -1.8770217233       -1.9556131374       -8.8262870388
 H        -2.8963245497       -1.9759716201      -10.1943452888
 H        -1.8065545597        0.3908479840      -11.0372841264
 H        -0.8689560700        0.2648326060       -9.3770776379
 H        -5.1720453936        3.9984719514       -8.7149423461
 H        -5.2116160145        2.2511472498       -9.2621789439
 H        -5.5307949737        3.6547487370      -11.2710305921
 H        -3.7616380141        3.8072724539      -11.1567934212
 H        -7.3671059073        7.3548454997      -10.2226777096
 H        -7.8085969691        5.6528466915      -10.2599522329
 H        -9.2941135373        7.9663793444      -11.3932616349
 H        -9.8722284376        6.8417302627      -10.3257155135
 H        -7.8202728728        5.2354912148      -15.2617235350
 H        -8.7377900835        6.1583594586      -16.5143313654
 H        -9.3661518489        4.0243468609      -17.6274112391
 H        -9.4552148582        3.1725557348      -16.1016282876
 H        -5.3259602259        1.3258964021      -13.5706666148
 H        -6.0892721396        0.1705754518      -14.6071739281
 H        -7.5760608551        1.4661780925      -12.2754497133
 H        -6.3246855994        0.1834089737      -11.9355635548
 H       -12.4947767710        0.5439115004      -12.6885468564
 H       -11.9219347102       -1.1132165057      -13.0415379298
 H       -12.0831118188       -0.5459057325      -15.2512531037
 H       -10.7538715450        0.5822847332      -15.1074476819
 H       -13.0101714508        3.8015500196      -17.3606984738
 H       -14.5074724259        3.1144629147      -18.1337503557
 H       -13.5925575614        3.9410903786      -19.9387725711
 H       -12.5433501281        2.4280319534      -19.9496212952
 H        -9.9174086787        1.8523217556      -22.5043247219
 H        -8.8465442124        3.1317340108      -23.2611253318
 H       -10.5210620655        3.3368852211      -23.3057957424
 H       -12.8387499492        5.5620192416      -21.5111739375
 H       -12.6791199786        3.9829989623      -21.9871463791
 H       -11.9233935803        5.1387761986      -22.9212570765
 H        -9.1924334538        6.3650253700      -21.1437129025
 H       -10.2851893636        6.6621021996      -19.8528274633
 H       -10.7724316851        6.8519380293      -21.5528101398
 H       -14.8850666710       -0.2818597646      -17.2486088781
 H       -14.4483394148       -0.6788638714      -15.5617025501
 H       -13.1812933277       -0.7425289986      -16.7998909925
 H       -15.0040048804        3.0588379902      -15.7572173020
 H       -15.5952578089        1.5519046598      -15.0168722017
 H       -15.7683652370        1.7528839759      -16.7761783211
 H       -10.2298597265       -2.1241233770      -13.7172453209
 H       -10.5550022542       -2.8770084620      -12.1455952061
 H        -8.9204546486       -3.0109218685      -12.8633601503
 H        -9.9723565359       -1.4519873055      -10.1201396652
 H        -8.6117482544       -0.2030569805      -10.0415971627
 H        -8.4857685143       -1.9573223950      -10.6597548700
 H        -7.5274429958       -0.1955710293      -16.7439878945
 H        -7.8481558513        0.8630367794      -18.0217588899
 H        -9.0156372209        0.7856188287      -16.7239631801
 H        -4.9024376784        2.2728744597      -16.3616484384
 H        -5.5380524807        1.4511828217      -17.8953966529
 H        -5.3557568694        0.6180340691      -16.4183336861
 H       -11.5906143376        8.0613344025      -13.5221807350
 H       -11.7274384523        6.7748337339      -12.3143660016
 H       -12.1022264526        6.3675936076      -13.9952773445
 H        -8.3290501167        7.8980458121      -14.3607910246
 H        -9.4114069947        8.6647415205      -13.2507575183
 H        -9.7369688819        8.5718330422      -14.9682881766
 H        -4.6046276779        8.0142564649      -10.6381410251
 H        -5.6476917150        8.4548950823      -12.0085414612
 H        -3.9828350356        7.9738432396      -12.2612018187
 H        -4.6361391713        4.5892402488      -13.1800082266
 H        -3.3869132565        5.7757082259      -12.9706427208
 H        -4.7038930836        6.1446678926      -14.0181957448
 H        -4.9226387286        1.5549509025       -7.3328461002
 H        -3.7481633305        2.3217582944       -6.1696436398
 H        -3.8542530991        0.5807549183       -6.3328287691
 H        -1.6421919817        2.6791637040       -6.7764694634
 H        -0.7998422557        2.4651259031       -8.3327645690
 H        -1.0311103703        1.0704494913       -7.2277928922
 H         0.1763217086       -5.9992660495      -10.7108294455
 H         0.1163267378       -4.4752022237      -11.8138553202
 H        -1.3681923047       -5.2598112664      -11.2497478088
 H        -1.0116245725       -5.3815620784       -8.3796685819
 H        -2.3380418553       -4.6209068706       -9.0118073409
 H        -1.2342289933       -3.8475471523       -7.8033861088
 H         6.5493697740       -4.0368421589       -6.2128577204
 H         4.7564996638       -3.6274810825       -6.2008820368
 H         5.7574027112       -3.7531748666       -7.6529290740
 H         6.7184303083       -5.9444731635       -8.6222552696
 H         6.5820690915       -7.4697370290       -7.6920515143
 H         7.4859393248       -6.0948281728       -7.0723613441
 H         2.8352827380       -9.4480132533       -4.9885827589
 H         1.1795736834       -9.6731704438       -5.4255388131
 H         1.9647446814      -10.7390809386       -4.1922448887
 H        -0.4189011929       -7.9942020249       -2.5817646232
 H        -0.3516332375       -9.7784348100       -2.5140388293
 H        -0.5441471807       -8.9693202785       -4.0383502286
 H         5.6497784861      -10.7624967212        3.1460312668
 H         4.6026517176      -11.4226518274        1.8477570525
 H         3.9132439326      -10.0632528321        2.9239192684
 H         6.5197538530       -8.5256595343        3.2268621753
 H         5.0288667275       -8.1350962251        3.2388304227
 H         6.0670740056       -7.4359358767        1.8317635138
 H         9.5650835407      -12.8882142782       -2.7038118248
 H         8.9696530572      -12.6385100509       -1.1340639526
 H        10.3938917327      -11.6425448482       -1.7113532643
 H        10.1630208874       -9.9208439302       -3.4521165610
 H         8.5178794918       -9.4394140017       -3.9774710110
 H         9.3203334837      -10.9023389805       -4.6918151478
 Na        5.7784358211       -8.5138367751       -3.0858283659
 Na      -10.5127379469        3.1282976447      -13.4395182270
