232

 C         6.8910575342      -12.7204656117       -3.8258950748
 C         7.3081148347      -11.2693895914       -3.6928789763
 O         6.6604651614      -10.3455533915       -4.1502277234
 C         8.6464815194      -10.8761299059       -2.9965982439
 C         8.3800578176       -9.6515227874       -1.9772552789
 O         7.7417618151       -8.6742936451       -2.3861884838
 C         9.1220725191       -9.5712519087       -0.6243174381
 C         8.1295647917       -9.1196174003        0.5148366840
 C         6.9557534679      -10.0380366800        0.5915719945
 O         7.0105215466      -11.1646515522        0.1934982693
 C         5.6405130836       -9.5439110347        1.3455097996
 C         4.6843135799       -8.7596081206        0.4518904868
 O         5.0829832125       -8.0605480824       -0.4706511007
 C         3.0461913560       -9.0082466431        0.4820901783
 C         2.1422245046       -8.4203124375       -0.5692132835
 C         2.4129123818       -9.0106555831       -1.9434641877
 O         3.3971017773       -9.6374561191       -2.2560442576
 C         1.3555599099       -8.6012588082       -3.1428950182
 C         1.9108914753       -7.2532472940       -3.5804076751
 O         1.3765554028       -6.2666208823       -3.0510750368
 C         3.0203003141       -7.2426809230       -4.6408335254
 C         3.6709949653       -5.8969081710       -4.7838319850
 C         4.9615631828       -6.0870734167       -5.5757368611
 O         5.8770457204       -6.8020741483       -5.1593567260
 C         5.2244795736       -5.4954327993       -7.0832373509
 C         3.9212215364       -5.6474316967       -7.9367797682
 O         3.0506892434       -6.4352368015       -7.6071457524
 C         3.7446553294       -4.6877472365       -9.1343895088
 C         2.4135938439       -4.8741549302       -9.8505565250
 C         1.2394414058       -4.0865712889       -9.1133953912
 O         1.5055953107       -3.4604915781       -8.1115635653
 C        -0.2111145941       -4.1810430040       -9.6533687277
 C        -0.5159864552       -2.6108399278       -9.9549062032
 O         0.2459676019       -1.9979470991      -10.6875319944
 C        -1.7980626075       -1.9206016522       -9.3203260803
 C        -1.7471319871       -0.3970370921       -9.5145819675
 C        -3.0168086561        0.2905766166       -8.9335718602
 O        -4.0816050706       -0.2287932191       -9.1739402816
 C        -2.9104303445        1.4992862040       -7.9245454437
 C        -3.1860482121        2.7341624697       -8.9635763162
 O        -2.2349825554        3.2257542479       -9.4729630767
 C        -4.6813060114        2.9898684227       -9.3383970597
 C        -4.7959430958        3.6833722602      -10.8044288946
 C        -4.8198866156        5.2064859812      -10.6374391401
 O        -4.7957667252        5.7579038507       -9.5750697918
 C        -4.9687950954        6.1762651351      -11.9183916323
 C        -6.4413184886        6.2283689008      -12.3719452576
 O        -6.8511747074        5.9197140593      -13.4325180419
 C        -7.4910368525        6.4513041614      -11.2305377833
 C        -8.7671072729        7.0663069924      -11.6496964637
 C        -9.7041414858        6.1837551552      -12.5852876746
 O       -10.0063678889        5.1285010318      -12.1856170779
 C       -10.1870571955        6.7880293755      -13.9702726838
 C       -10.2055749781        5.6510359308      -15.0850900489
 O       -11.1287308046        4.8419469442      -15.0304508807
 C        -8.9047319855        5.5324113391      -15.8880118118
 C        -8.6895462221        4.1547964332      -16.5571545766
 C        -7.1802267821        3.7894354389      -16.4053799224
 O        -6.3116937946        4.5907840568      -16.6670086462
 C        -6.7806963308        2.3221522926      -15.9820811624
 C        -7.2749036823        1.8991838589      -14.6117861817
 O        -8.4273836730        2.1765747267      -14.2754605370
 C        -6.4349437480        0.9264449475      -13.7492360263
 C        -7.1265308874        0.0908847927      -12.7594199862
 C        -8.4410868950       -0.6671584181      -13.3517076020
 O        -8.6193481626       -0.9133602949      -14.5218081148
 C        -9.5255080408       -1.0297256232      -12.2803081128
 C       -10.4927814960        0.2908587909      -12.3601175953
 O       -10.1280008061        1.3595409181      -11.8974329680
 C       -11.8694776783        0.1122615491      -13.0241701736
 C       -11.8632052824        0.1350739680      -14.6399565626
 C       -12.7526935296        1.3554635815      -15.1440289393
 O       -12.5334193464        2.4425172579      -14.6188053661
 C       -14.0282837565        1.1940576212      -16.1198356640
 C       -13.2437424564        1.6238293495      -17.4422382911
 O       -12.8421890244        0.7143139199      -18.0906099588
 C       -13.1430329806        3.1857081265      -17.8341389628
 C       -12.7063431047        3.4395555891      -19.3012799489
 C       -11.6347464571        4.6214740864      -19.3596654316
 O       -11.3854331879        5.2728767115      -18.3673035028
 C       -10.9574268603        4.7777307645      -20.8422167025
 C       -10.1746476116        3.3224248140      -21.2212757111
 O       -10.1482784922        2.3250205984      -20.5407332195
 C        -9.4598431118        3.3832328302      -22.5493220102
 C       -12.1635799490        4.9391833628      -21.7870311821
 C       -10.1033212570        6.0199418742      -20.9249769859
 C       -14.4678939374       -0.2388073581      -16.2759048133
 C       -15.0627288286        2.2242372444      -15.6577389522
 C       -10.1445688967       -2.3565222505      -12.7976852807
 C        -8.8909145604       -1.2117323001      -10.8788372773
 C        -7.5780522845        1.3036085489      -16.8673367724
 C        -5.1890623045        2.2651917629      -16.0526467188
 C       -11.6053128823        7.2311527047      -13.7295831683
 C        -9.3280655260        7.9167842713      -14.3951045901
 C        -4.3631663690        7.4661196429      -11.4148358494
 C        -4.1316109156        5.4883446392      -13.0202166921
 C        -4.0009905069        1.4037925029       -6.8619372529
 C        -1.5334487505        1.8038991968       -7.3408514302
 C        -0.3417153472       -5.1428370753      -10.9201022276
 C        -0.9262920576       -4.9874900341       -8.4775138472
 C         5.8366156482       -4.0841309707       -6.8881494301
 C         6.2579126195       -6.4389821072       -7.8541086771
 C         1.4565146249       -9.6495369055       -4.3187177847
 C        -0.0739463927       -8.6092719523       -2.5799746268
 C         4.9381740824      -10.8781392066        1.9793429354
 C         5.8175587518       -8.5400993883        2.5068793885
 C         9.3897680869      -12.1098293633       -2.2761434170
 C         9.7030168940      -10.1865605727       -3.9912427603
 H         6.2143147886      -12.7509382369       -4.7241937969
 H         6.3223443903      -12.8872262250       -2.9476521476
 H         7.7195006593      -13.4309699294       -3.9451615483
 H        10.0336321750       -8.9005205317       -0.5933425868
 H         9.3686623769      -10.5953031694       -0.2323552558
 H         7.7374153571       -8.0900342166        0.2891824449
 H         8.6201459209       -9.1329558194        1.4919541933
 H         2.6409863729       -8.6158108757        1.4138171346
 H         2.9378433363      -10.0572186369        0.6262021061
 H         2.3674421695       -7.3891787790       -0.6071183192
 H         1.1818704956       -8.5864985999       -0.2556496270
 H         2.7301566624       -7.5449791289       -5.6223353998
 H         3.7435584742       -8.0679576090       -4.4031218252
 H         3.8740640885       -5.5446372679       -3.7693592063
 H         2.9290571350       -5.2196338823       -5.3040823150
 H         4.4031467617       -4.8998829976      -10.0137431852
 H         3.9516873295       -3.6450433971       -8.8893656494
 H         2.1095244480       -5.9353431220       -9.8454718686
 H         2.3858247668       -4.6554605902      -10.9119381244
 H        -1.6473216086       -2.2818606035       -8.3101723026
 H        -2.6603226502       -2.4555326552       -9.7991476139
 H        -1.7296408248       -0.1753359926      -10.6216905349
 H        -0.7860759987        0.0435820464       -9.0284881220
 H        -4.9547462547        3.8000935632       -8.5553132436
 H        -5.3860309180        2.1640979424       -9.2026708707
 H        -5.7165321125        3.3692482145      -11.2658696541
 H        -3.9764188864        3.2817525343      -11.3875787574
 H        -7.1703937396        6.9794546660      -10.3325214505
 H        -7.6330371035        5.4086074571      -11.0752004772
 H        -8.5786873736        8.0837164562      -12.0944049589
 H        -9.4385923877        7.1962000822      -10.8053758628
 H        -8.0501559419        5.8338950397      -15.2132621487
 H        -8.7997881022        6.2932087757      -16.6682340722
 H        -8.9713958416        4.0999457937      -17.5636096303
 H        -9.4669521409        3.4970067215      -16.0301588050
 H        -5.6289201857        1.5381526036      -13.3630654981
 H        -5.8641035585        0.3619077987      -14.5023899370
 H        -7.5139216160        0.7448864206      -11.8638522129
 H        -6.4068549568       -0.6607985120      -12.3301029956
 H       -12.5126654849        0.8616857080      -12.5329937350
 H       -12.3639028464       -0.7739474564      -12.5853005543
 H       -12.3606363723       -0.7794726774      -15.0347762861
 H       -10.8746205208        0.2229595328      -15.0428308516
 H       -12.3858208780        3.5575353115      -17.1660087663
 H       -14.0946381407        3.6278831723      -17.5554219188
 H       -13.5385764483        3.7442307232      -19.8728510490
 H       -12.3034602942        2.5046071519      -19.8047752540
 H        -8.4757271477        2.8747791643      -22.5269096636
 H        -9.4029290476        4.3431414478      -22.9412807419
 H       -10.1618195277        2.8982771655      -23.2977384226
 H       -12.8774452599        5.6738952400      -21.5985648042
 H       -12.7638162290        4.0456512128      -21.8024519441
 H       -11.8679534728        5.2267310566      -22.7278912457
 H       -10.0441603963        6.4511343989      -21.9833205053
 H        -9.0798018968        5.7898830814      -20.6282560746
 H       -10.4087132526        6.7612142040      -20.1986897381
 H       -15.2734071625       -0.3578657307      -16.9991359151
 H       -14.7574495146       -0.5450573656      -15.2549826051
 H       -13.5732321996       -0.7674686520      -16.6402505942
 H       -14.5393701839        3.0644648908      -15.3560636102
 H       -15.6297822568        1.9555435506      -14.7545276530
 H       -15.8681653822        2.3314149200      -16.4092378832
 H        -9.3151938349       -3.0771002492      -13.0472598027
 H       -10.8109261143       -2.2250104924      -13.7303809131
 H       -10.7620043872       -2.7145635803      -11.9814388872
 H        -9.7027244192       -1.4922711789      -10.1312513974
 H        -8.4528830894       -0.3002453891      -10.5962310409
 H        -8.1412983156       -2.0286540491      -11.0092000573
 H        -7.6262154179        0.2476440787      -16.7015370457
 H        -7.4748401367        1.5325211052      -17.9565938116
 H        -8.6477761769        1.5620882918      -16.6532505520
 H        -4.8614845354        1.5013671737      -16.7270721030
 H        -4.7493689427        2.1453011467      -15.0854037402
 H        -4.9527625717        3.2214994170      -16.5109413858
 H       -12.1986370380        6.7638098719      -14.4977945367
 H       -11.6714957723        8.3526216142      -13.8411741558
 H       -11.9884610270        6.9606690295      -12.7456886813
 H        -8.2626206890        7.7113581679      -14.3068139750
 H        -9.5079638832        8.7507041610      -13.7666537732
 H        -9.4281758920        8.2685803005      -15.3838683006
 H        -5.0181046443        7.9921209112      -10.7737645994
 H        -3.9271680448        8.0523038243      -12.2354031802
 H        -3.5018042586        7.1822583936      -10.7389629370
 H        -4.4016102409        4.4838551579      -13.2922489002
 H        -3.0504451880        5.5608740984      -12.7364337177
 H        -4.0700733601        6.0105409651      -13.9494392558
 H        -5.0043809021        0.9770632251       -7.2607813493
 H        -4.2542429974        2.4154464029       -6.5036020376
 H        -3.6971798047        0.8673557347       -5.9368206097
 H        -0.9941382490        2.6631139697       -7.8347158500
 H        -0.8765904167        0.9201014244       -7.4360427766
 H        -1.5979968804        2.0401100215       -6.2471430795
 H        -0.1538900681       -6.1767168882      -10.6040858817
 H         0.3712898943       -4.9743471462      -11.6605911014
 H        -1.3004843307       -4.8473641592      -11.3931803926
 H        -0.3140753040       -5.8958360117       -8.2926844747
 H        -1.9654924230       -5.2654007001       -8.6372247040
 H        -0.8639864537       -4.4668143550       -7.5898357790
 H         6.8779327775       -4.1328329122       -6.4613496525
 H         5.2923724337       -3.6100237662       -6.1062849548
 H         5.8022766792       -3.3848632361       -7.7319019673
 H         6.7052048378       -5.8999935632       -8.6513752813
 H         5.8836363448       -7.3936472374       -8.1754339921
 H         7.1199203468       -6.6339930963       -7.2241050616
 H         2.3588301742       -9.5978020579       -4.8893842074
 H         0.6394798905       -9.5262402110       -5.0353675194
 H         1.2688715654      -10.6787222387       -4.0468812131
 H        -0.3342188064       -7.7186229889       -2.0568739497
 H        -0.3132733843       -9.4876630382       -1.8910127523
 H        -0.7221446994       -8.6164992993       -3.4358058297
 H         5.7599826600      -11.4857516591        2.4433063239
 H         4.6226236732      -11.3886332418        1.0248867690
 H         4.1538337984      -10.5825072960        2.5967813547
 H         6.2402635037       -8.8577331202        3.4779847001
 H         4.7929562139       -8.1450217150        2.6359223277
 H         6.4555927011       -7.6236409639        2.2681969701
 H         9.7012871118      -12.7371285003       -3.1056405050
 H         8.6805530645      -12.6204537994       -1.6056838548
 H        10.2634272824      -11.7964753657       -1.7513896127
 H        10.4594971178       -9.6700993483       -3.3430333997
 H         9.3155956509       -9.3208437941       -4.5173113792
 H        10.1261503266      -10.9402249296       -4.6955627757
 Na        5.4676498429       -8.4652501930       -3.2350527853
 Na      -10.3915094286        3.1484153963      -13.4769823294
