232

 C         6.9903777007      -12.4714257649       -4.0528242850
 C         7.3468834216      -10.9685415017       -3.9419155134
 O         6.6130692799      -10.1401544364       -4.3817234737
 C         8.6562332150      -10.6137089097       -3.1734792020
 C         8.4561156659       -9.4658910913       -2.2493087318
 O         7.7125869244       -8.4975919574       -2.5164380631
 C         9.0322000561       -9.3855206949       -0.9023626752
 C         7.8754661737       -8.8913338212        0.0372739816
 C         6.9552420990      -10.0282049388        0.3731706364
 O         7.0206321718      -11.1115420288       -0.1178465400
 C         5.7106390477       -9.5263352659        1.3698072119
 C         4.6999766833       -8.8709349268        0.3568208638
 O         5.1253981283       -8.1360492771       -0.5199355283
 C         3.1608384919       -9.1914981241        0.3797210948
 C         2.3636470585       -8.3986228152       -0.5847080833
 C         2.5055626605       -8.8970316206       -2.0189763932
 O         3.4395938790       -9.4648670570       -2.6333932867
 C         1.2514932398       -8.5521628445       -2.9571980932
 C         1.8019345306       -7.2781125099       -3.6873095202
 O         1.5568998631       -6.2608099909       -3.0638769516
 C         2.7458200711       -7.2952997219       -4.8722229229
 C         3.6840879512       -6.1170794785       -4.7475963239
 C         4.8810580362       -6.3088209990       -5.5873742045
 O         5.7962738628       -6.8723370049       -4.9293042169
 C         5.2479024982       -5.5988425132       -7.0199433613
 C         3.9036467089       -5.5288518517       -7.8316369582
 O         2.8355885189       -5.9951001354       -7.4841437780
 C         4.0173580066       -4.9527063247       -9.1746043330
 C         2.7213724500       -4.8659496315       -9.9453174980
 C         1.5348988632       -4.2723505262       -9.0200262837
 O         1.8248651952       -3.7884977940       -7.9703293655
 C        -0.0030733710       -4.2334347738       -9.5139212584
 C        -0.4402642868       -2.7736441661       -9.6956161959
 O         0.1245100642       -1.9845634670      -10.4362824870
 C        -1.5095501326       -2.1698054287       -8.8567780575
 C        -1.6905620304       -0.6796433759       -9.1716995149
 C        -2.9827575696       -0.0399449251       -8.5931278863
 O        -4.0548595571       -0.5384464167       -8.9510754863
 C        -2.9459243562        1.3531465188       -7.8927612720
 C        -3.1185783541        2.3688626994       -9.0932214176
 O        -2.2047840527        2.8990465702       -9.6282576342
 C        -4.5870441330        2.5319809566       -9.6184433630
 C        -4.8218237620        3.5475739183      -10.7941034423
 C        -4.9334744523        5.0322087329      -10.5503336657
 O        -5.2963384698        5.5387784059       -9.5214790717
 C        -4.8528597992        5.9485587143      -11.8450544896
 C        -6.3957565062        6.1017162652      -12.2806133283
 O        -6.6503505676        6.1363277585      -13.4227337425
 C        -7.5725544135        6.3447039380      -11.1944059846
 C        -8.5784890311        7.3247201721      -11.7687420804
 C        -9.4031892287        6.3872122324      -12.7632860462
 O        -9.6761480087        5.2965570231      -12.3359816010
 C       -10.1573809950        6.9812069588      -14.0930259410
 C        -9.9892659160        5.7656734147      -15.1466807094
 O       -10.6072761823        4.7520328553      -14.8472261393
 C        -9.0334704082        5.8001519137      -16.3905097308
 C        -8.6806061247        4.2980449150      -16.6862343229
 C        -7.2187758433        3.9260736404      -16.3190010777
 O        -6.4488825426        4.7907016222      -16.0017643599
 C        -6.6023872185        2.3841298389      -16.1515999735
 C        -7.3188135330        1.8930253696      -14.7542447634
 O        -8.3191151940        2.3992400791      -14.2898720616
 C        -6.5986301553        0.7815253210      -13.9346829308
 C        -7.4896890210        0.2654152433      -12.7760366055
 C        -8.5462549750       -0.7913317972      -13.2376927474
 O        -8.5233456424       -1.1756259614      -14.3839489930
 C        -9.7371149839       -1.1475590200      -12.2732975297
 C       -10.5748532590        0.1588985074      -12.3947329410
 O       -10.0341832736        1.1946726202      -12.0790851159
 C       -12.0413222006        0.1296926934      -12.9389277391
 C       -12.0795703919        0.0303198484      -14.4855989052
 C       -12.7736240279        1.2882705844      -15.0069644665
 O       -12.3153745600        2.4014527415      -14.7332236481
 C       -14.0378515377        1.2697221541      -15.8806658548
 C       -13.4450300313        1.7066016025      -17.2980919715
 O       -13.2594446984        0.8768529197      -18.1266938700
 C       -13.0688891752        3.2347298404      -17.6086398591
 C       -12.3030371429        3.2452861047      -18.9065265386
 C       -11.6572880895        4.6211315993      -19.2950759201
 O       -11.5025149694        5.4380283888      -18.4121176243
 C       -11.1364839174        4.7457878857      -20.7632789524
 C       -10.3328184444        3.2671698145      -21.3007054030
 O       -10.6180432092        2.1488804495      -20.9738154095
 C        -9.2952698085        3.4380176000      -22.3557273874
 C       -12.2094384993        4.9738084607      -21.7880688186
 C       -10.1103454737        5.8763640168      -20.8364482473
 C       -14.4468300249       -0.1961767475      -16.0475268985
 C       -15.0298827312        2.2599276373      -15.5104470818
 C       -10.4334031837       -2.3903334577      -12.8820662448
 C        -9.3174146220       -1.3924375585      -10.8104062040
 C        -7.0247673344        1.4991570250      -17.4137360511
 C        -5.0912204395        2.5013449533      -16.0057299933
 C       -11.6400147200        7.2236734689      -13.7078729933
 C        -9.4888544897        8.2609279787      -14.5524898218
 C        -4.5066942353        7.4939133533      -11.5994585175
 C        -4.0484924218        5.3393255895      -12.9381500625
 C        -4.0533046331        1.5717099443       -6.8652208715
 C        -1.6091465828        1.6995009340       -7.2151402161
 C        -0.3484078571       -4.9578913243      -10.8373330198
 C        -0.9255655272       -4.9968821108       -8.4640494900
 C         5.7160670234       -4.0275573296       -6.7631948354
 C         6.2717626835       -6.4339489934       -7.7151345011
 C         1.1226502950       -9.7833138210       -3.9166088299
 C        -0.1050206065       -8.1860343784       -2.3365894049
 C         5.0806255076      -10.8715186981        1.8775753340
 C         6.0736444135       -8.6159854091        2.5601936952
 C         9.3088080896      -11.8449395151       -2.4246796921
 C         9.5908445254      -10.1990555680       -4.3874287099
 H         6.0043724919      -12.6283936215       -4.5344676835
 H         6.9935502489      -12.6991562622       -3.0519325744
 H         7.7615994286      -13.0238182529       -4.5693307392
 H         9.9129792783       -8.7040366702       -0.8926924632
 H         9.3298808765      -10.3218455256       -0.4861108302
 H         7.3720418469       -8.0738152894       -0.4278695515
 H         8.1085247514       -8.6139698763        1.0370170791
 H         2.7772320234       -8.9659304790        1.3654330764
 H         2.9079294101      -10.3029113485        0.3454620134
 H         2.6580323529       -7.2910609984       -0.6072079082
 H         1.3430896975       -8.5056960559       -0.2463035987
 H         2.2520655543       -7.3741727259       -5.8553176383
 H         3.3332743297       -8.2148053502       -4.8866700997
 H         3.9436083855       -5.9960912442       -3.7057772238
 H         3.1611202697       -5.1936325733       -4.9957460230
 H         4.7548520314       -5.5885477138       -9.8271272767
 H         4.3010169392       -3.9328756924       -9.1727578124
 H         2.3452120338       -5.8960879558      -10.1979709032
 H         2.6832133091       -4.2479804836      -10.8311270691
 H        -1.1548282282       -2.3877299509       -7.9082575594
 H        -2.3573986511       -2.7495030986       -9.1473539588
 H        -1.9098337518       -0.4748253729      -10.2303433355
 H        -0.7573742922       -0.1219006967       -9.0389127403
 H        -5.2163336962        2.9176587918       -8.8317239082
 H        -4.9809047025        1.4773595263       -9.8428062890
 H        -5.7622724842        3.2187361802      -11.3537338053
 H        -4.0161550757        3.4758858407      -11.5043791259
 H        -7.1774652672        6.6485750309      -10.2126173298
 H        -8.1091813732        5.4437135842      -11.1245257062
 H        -8.2230028570        8.1701356828      -12.3005316705
 H        -9.3512315311        7.5551682939      -10.9911158017
 H        -8.1334003597        6.5373701591      -16.3930064361
 H        -9.5757263803        6.1556469920      -17.2181915018
 H        -8.9198630947        4.0898734145      -17.7536774554
 H        -9.4327275306        3.6573303740      -16.0980810938
 H        -5.7099237500        1.3174643637      -13.5216397031
 H        -6.2087926489        0.1779747281      -14.6612702479
 H        -8.0244514886        1.1706404104      -12.5018443719
 H        -6.9630441092       -0.0967537168      -11.9314929073
 H       -12.5440410993        0.9889238570      -12.5045170263
 H       -12.5677275520       -0.7028773121      -12.4521804183
 H       -12.5797662177       -0.8669174661      -14.8082665928
 H       -11.0509282993       -0.0078806115      -14.9667272531
 H       -12.3905835882        3.5321357744      -16.8111090123
 H       -13.9489977314        3.9243536702      -17.5215919502
 H       -12.9456960000        2.9296646945      -19.7435906434
 H       -11.5356028825        2.4901963861      -18.9238043089
 H        -8.5180837678        3.9947556153      -21.8241516611
 H        -9.6386312321        4.0856921945      -23.1143235366
 H        -8.8710426823        2.4711644356      -22.7899425599
 H       -12.8739746060        5.8468435084      -21.7625314611
 H       -12.9467712348        4.1152206181      -21.6291002721
 H       -11.9382330451        4.9420555792      -22.8654120983
 H       -10.3170824077        6.5648876242      -21.7299021859
 H        -9.1013102581        5.5879060259      -20.9181212354
 H       -10.1719852449        6.3807424954      -19.8889206678
 H       -15.3880925009       -0.2602585796      -16.6407181186
 H       -14.6779210570       -0.5781545773      -15.0991008704
 H       -13.6448049706       -0.6313098861      -16.6758209703
 H       -14.4402824430        3.1819416933      -15.4277417184
 H       -15.5100008989        2.0666264075      -14.5436972291
 H       -15.8492901600        2.3374428794      -16.2439566376
 H       -10.6194779292       -3.1273851404      -12.1274807169
 H        -9.6370508610       -2.7790497664      -13.5447967336
 H       -11.2849482585       -2.1482523275      -13.4712974856
 H       -10.2741590505       -1.7144235463      -10.4052005915
 H        -9.0376348002       -0.5346060650      -10.2318723180
 H        -8.5468010097       -2.1956418955      -10.8193852603
 H        -6.6844514661        0.4854992536      -17.3504596353
 H        -6.6307730105        1.9506785419      -18.3252471429
 H        -8.1560327353        1.4052199376      -17.6052348253
 H        -4.8438770878        2.2159177261      -14.9723636755
 H        -4.8068169318        3.6043061123      -16.1179358682
 H        -4.5573455266        1.8971737917      -16.7178139533
 H       -12.0970215042        6.2638240331      -13.7702141388
 H       -12.0530248658        7.8997610708      -14.5486457932
 H       -11.7906881764        7.6867789640      -12.7579780121
 H        -8.3838366410        8.1767457456      -14.6667694286
 H        -9.5048621936        9.1286629698      -13.8163735368
 H        -9.8664388005        8.7444809135      -15.4403964848
 H        -4.9489411619        7.8306217181      -10.7157637151
 H        -4.9405060940        8.0219691195      -12.4827167838
 H        -3.4105662947        7.6799911896      -11.6401398638
 H        -4.4670675698        4.4224645177      -13.2423008620
 H        -2.9408913963        5.1682134782      -12.8062778874
 H        -4.1005192732        5.9507202779      -13.8174271162
 H        -5.0290750867        1.3764694773       -7.3078257459
 H        -4.1044103802        2.5241842220       -6.5225209037
 H        -3.9974938927        0.7887508941       -6.1138472422
 H        -0.7597885080        1.1729458310       -7.5927690941
 H        -1.6452891662        1.6363429166       -6.1387902747
 H        -1.3659995040        2.7373022567       -7.4049928580
 H         0.3004795781       -5.8946432152      -10.9378083964
 H        -0.1695171732       -4.3428386633      -11.7028246304
 H        -1.3990309640       -5.2676739186      -10.9059323156
 H        -0.7367098258       -6.1006645022       -8.6196626793
 H        -2.0588550945       -4.8528149603       -8.6677503313
 H        -0.8071388195       -4.6726548370       -7.4766134931
 H         6.3614109095       -3.8710157607       -5.9034599297
 H         4.8850610305       -3.3373903837       -6.6022571621
 H         6.2865970932       -3.7025899451       -7.6301777695
 H         6.4137792425       -6.0772323518       -8.7558492624
 H         6.0037874121       -7.5014138798       -7.7423848867
 H         7.2633279736       -6.3529441414       -7.2924959728
 H         2.0839605733      -10.1201953968       -4.2059573312
 H         0.5092913485       -9.8345809531       -4.8349397214
 H         0.6931942737      -10.6764457289       -3.3295007298
 H        -0.0205969381       -7.5017149926       -1.5154219517
 H        -0.5440396865       -9.0897676379       -1.8546163812
 H        -0.7613724272       -7.8377138027       -3.0847980070
 H         5.8002323883      -11.1469854310        2.6743785699
 H         5.0108008312      -11.5940267368        1.0242926113
 H         4.2173079087      -10.6467767870        2.4078128995
 H         7.0146117620       -8.9819683424        2.8371270752
 H         5.3628549133       -8.7539599015        3.3386274732
 H         6.1108615609       -7.5369461012        2.6024962543
 H         9.4122726519      -12.6459615233       -3.1865354063
 H         8.7245533942      -12.0698687233       -1.5229555706
 H        10.3342543315      -11.6605069264       -2.1449555623
 H        10.6151536398      -10.1296614034       -4.1306955910
 H         9.2865317210       -9.2420509528       -4.7906910646
 H         9.4990321254      -10.9911591933       -5.1306038659
 Na        5.6502436128       -8.3221168071       -3.0269754952
 Na      -10.6391839125        3.0292846496      -13.2338194654
