232

 C         6.9426267186      -12.4630076953       -4.1513812920
 C         7.2800777381      -10.9117009169       -3.9323737216
 O         6.4613079151      -10.1299224042       -4.3380141750
 C         8.6761192247      -10.5678919882       -3.3382163154
 C         8.4389956702       -9.3208798645       -2.3739535697
 O         7.8949559699       -8.3216062834       -2.8059029849
 C         9.0266524818       -9.3638074428       -0.9268937063
 C         8.0568178820       -8.8901840794        0.1786165989
 C         6.9451779993       -9.9373289378        0.4257538869
 O         6.9001783437      -11.0049189606       -0.1751109795
 C         5.7699058437       -9.6286235058        1.3297633749
 C         4.8368168195       -8.9135945803        0.2560613246
 O         5.1974957232       -8.1273507891       -0.6150219546
 C         3.3483672430       -9.2730186113        0.2944707715
 C         2.3958483094       -8.5221540801       -0.5924415133
 C         2.5172236250       -8.8505503647       -2.0758300863
 O         3.5117497393       -9.2794311596       -2.5883041808
 C         1.2068148503       -8.6221133240       -2.9127943051
 C         1.7205868508       -7.2492363860       -3.6385412271
 O         1.5388232751       -6.1114318767       -3.1295995114
 C         2.5449808477       -7.2946731335       -4.8756585688
 C         3.6181418529       -6.1059498073       -4.7836896485
 C         4.9588785921       -6.2419492729       -5.4482289807
 O         5.8359749150       -6.9920997650       -5.0683470030
 C         5.2124496105       -5.6557330303       -6.8841151103
 C         3.9516726159       -5.6292522659       -7.7886895129
 O         2.9458778034       -6.1583684341       -7.3816349379
 C         3.9897653651       -5.0148357949       -9.3221687605
 C         2.6044706468       -4.7620680530       -9.9870628386
 C         1.4726402149       -4.1876406214       -9.0414789087
 O         1.7589196952       -3.7155704929       -7.9337282947
 C         0.0149923232       -4.3006288623       -9.5107107537
 C        -0.4399478623       -2.7089288555       -9.6080875160
 O         0.1643101910       -2.0231915709      -10.4048759824
 C        -1.5747958270       -2.0708806778       -8.5969078567
 C        -1.6894451673       -0.6834306120       -9.1080973585
 C        -2.9641980228       -0.1011166058       -8.5643192623
 O        -3.9961528677       -0.6923274100       -8.7461312627
 C        -2.9506249015        1.3107660771       -7.9053118100
 C        -3.1446927742        2.2579468990       -9.2000659028
 O        -2.1185839638        2.7436699517       -9.6459938590
 C        -4.5605141135        2.4485115262       -9.6529216411
 C        -4.7653997585        3.4200686996      -10.8542892591
 C        -5.0223403377        5.0453394172      -10.5659366078
 O        -5.3828790589        5.3959685829       -9.4543144737
 C        -4.9733077929        6.0051180176      -11.8908580983
 C        -6.4567171132        6.1914901349      -12.3199332538
 O        -6.8064879883        6.1447680182      -13.4859130876
 C        -7.4265122871        6.4661506202      -11.2421830793
 C        -8.4750469855        7.2572801853      -11.9042821877
 C        -9.4313475693        6.4014501402      -12.8199636387
 O        -9.6745418432        5.3051982848      -12.4736144047
 C        -9.9557188426        6.9389229487      -14.1420321442
 C        -9.8862282912        5.7010825720      -15.1076810177
 O       -10.5302811438        4.6785550892      -14.8658799615
 C        -9.1617364718        5.7228079404      -16.3720009197
 C        -8.5801920050        4.2876231438      -16.8179693487
 C        -7.1996533674        4.0309269994      -16.1402476129
 O        -6.4488086894        4.9299313503      -15.8515689726
 C        -6.6085568335        2.5227808591      -16.0875560032
 C        -7.2535331579        1.8615353479      -14.8754007970
 O        -8.2720508285        2.4645892832      -14.4549982058
 C        -6.6256008566        0.7260740382      -13.9152782159
 C        -7.5420889853        0.3137011168      -12.8234390821
 C        -8.5964412419       -0.7531610133      -13.3041239592
 O        -8.5175167631       -1.4149644424      -14.3229653280
 C        -9.7665423045       -1.1480701831      -12.3261018296
 C       -10.6662119365        0.1194700434      -12.3491617660
 O       -10.2471515401        1.2388860449      -12.0723670461
 C       -12.1048700356        0.0488558155      -12.8397717861
 C       -12.1423738781        0.0206360885      -14.3996094453
 C       -12.7671486230        1.3429978108      -14.8848161424
 O       -12.2200085721        2.4123088219      -14.6346566921
 C       -14.0082316792        1.3562053944      -15.8701366583
 C       -13.4535169147        1.7332320104      -17.3125056885
 O       -13.4505902810        0.8812188012      -18.1678845360
 C       -12.9811936791        3.1398068721      -17.6134285986
 C       -12.2609052569        3.1429474681      -18.9193776708
 C       -11.5782294707        4.4487069896      -19.3196623588
 O       -11.5623312499        5.4155305065      -18.5580816353
 C       -11.0338092560        4.5712812076      -20.7421722415
 C       -10.3539334835        3.3531552914      -21.3049175074
 O       -10.8227741736        2.2678543848      -21.0134224024
 C        -9.1778374703        3.4675672523      -22.3329169162
 C       -12.2541450458        4.9935595953      -21.6209479658
 C       -10.1305895524        5.9629554925      -20.8469844502
 C       -14.5124732925       -0.2005433201      -15.9877920229
 C       -15.1443092107        2.3361022020      -15.3709625027
 C       -10.4780979618       -2.3881096453      -12.9199464623
 C        -9.3106723178       -1.5113165551      -10.8100589327
 C        -7.0765346464        1.8122607746      -17.3631358417
 C        -5.1065612419        2.5958165767      -15.9904376874
 C       -11.4928893031        7.1529729034      -13.7138617057
 C        -9.4503337977        8.3218543514      -14.6206722315
 C        -4.3691738555        7.4260868930      -11.4081341591
 C        -4.1371820531        5.3959799742      -13.0096495417
 C        -4.1275624210        1.4214670528       -6.7794977603
 C        -1.5698262342        1.7409631200       -7.1434242814
 C        -0.1830569822       -5.0197804359      -10.8694147123
 C        -0.7157310340       -5.1017845509       -8.4429855164
 C         5.6760086222       -4.2246313174       -6.5805717513
 C         6.3531185365       -6.4365029946       -7.5540504765
 C         1.0079243040       -9.7812758016       -3.8558245213
 C        -0.0443518367       -8.1535307838       -2.1927671918
 C         5.1191172883      -10.9849464241        1.8104283778
 C         6.0512469887       -8.6255155757        2.4540062760
 C         9.2769804262      -11.7298387335       -2.5458538694
 C         9.6585025272      -10.0995326158       -4.4726999736
 H         5.9515556649      -12.6086784491       -4.4749192537
 H         7.1759313570      -12.9730096330       -3.2369215578
 H         7.6287886739      -12.7807697016       -4.8977260407
 H         9.9344185799       -8.6829902222       -0.8968971616
 H         9.3896065180      -10.3675726258       -0.5298691877
 H         7.4646357192       -8.1045412894       -0.3144148278
 H         8.4308611230       -8.4614675077        1.0649783637
 H         3.0191360038       -9.0840203652        1.3351431929
 H         3.1586543339      -10.3208357010        0.2386716029
 H         2.7291247226       -7.5128256101       -0.6558673104
 H         1.4639278956       -8.5475782831       -0.1354542709
 H         1.8319850952       -7.2143871340       -5.6659758504
 H         3.0484302526       -8.2677994132       -5.1481691979
 H         3.7543667223       -5.9215263407       -3.7294646518
 H         3.0615389612       -5.1853220604       -5.0930336123
 H         4.4034829451       -5.7554574411      -10.0226757033
 H         4.4444007585       -4.0073499686       -9.5163002921
 H         2.1589962292       -5.7413880771      -10.2635706392
 H         2.6016731866       -4.0943557969      -10.8696139345
 H        -1.1048672534       -2.1198631172       -7.6536523575
 H        -2.4914019974       -2.6159354864       -8.7298327485
 H        -1.7511213446       -0.4888792340      -10.2029928096
 H        -0.7417389485       -0.0335099162       -8.8273145118
 H        -5.2953727800        2.7900822253       -8.7750038200
 H        -4.8129152434        1.4033594879       -9.8721647518
 H        -5.7027390535        3.1846829058      -11.3129536727
 H        -4.0429069384        3.2545368630      -11.6295352898
 H        -6.9785124092        7.0246204793      -10.4690476769
 H        -7.8100355423        5.5746014265      -10.8318161386
 H        -8.0139188515        7.9511275663      -12.6818935464
 H        -9.0069542349        7.7666357543      -11.1244213462
 H        -8.3072873428        6.4262425117      -16.4438097154
 H        -9.8510269358        6.1458106698      -17.1711666791
 H        -8.4280354553        4.3503677645      -17.8990135060
 H        -9.2995741347        3.3780038146      -16.6232682277
 H        -5.7314165872        1.1370467217      -13.5242837699
 H        -6.3547463970       -0.1689581848      -14.5621935172
 H        -8.0851186997        1.1367920464      -12.2760282647
 H        -6.8931365714       -0.2657344583      -12.1144597388
 H       -12.5999886771        0.9391888021      -12.3872100890
 H       -12.6270061138       -0.8280682719      -12.3746284996
 H       -12.7796811913       -0.8611232463      -14.7528499286
 H       -11.2008357914       -0.0888728642      -14.9299514193
 H       -12.3577169557        3.5021058666      -16.8072428237
 H       -13.8498939260        3.7927851609      -17.5954144642
 H       -12.9212867201        2.9677052593      -19.7052483904
 H       -11.5416493612        2.2979644380      -19.0757977000
 H        -8.3134887470        4.0933310372      -21.9891860292
 H        -9.4936177262        3.8800073945      -23.2893038757
 H        -8.8466668844        2.4287125819      -22.4561425540
 H       -12.7279761806        5.8403660776      -21.1597684008
 H       -13.1012473999        4.3126425892      -21.7569806681
 H       -12.0345736455        5.2719692935      -22.6172034959
 H       -10.2523116733        6.3465581448      -21.8608065856
 H        -9.0135683398        5.9977034952      -20.6163971660
 H       -10.6460423958        6.6159497005      -20.1178067931
 H       -15.3859429692       -0.2280003871      -16.6096104720
 H       -14.8956258438       -0.4575685516      -14.9438980091
 H       -13.7486597896       -0.7641163881      -16.4869616754
 H       -14.6824311969        3.2766727466      -15.4313757146
 H       -15.5228479708        2.1524938846      -14.3393254880
 H       -16.0313550710        2.3531003875      -16.0718958429
 H       -11.1780085308       -2.7399412964      -12.1136223732
 H        -9.6558271513       -3.0933236219      -13.0515567839
 H       -10.9125176771       -2.1260435624      -13.8489542828
 H       -10.1908715496       -1.6122781754      -10.0915966570
 H        -8.6563907214       -0.7730543778      -10.4371084708
 H        -8.6926195825       -2.4131830641      -10.9881133410
 H        -6.7970298977        0.7164527073      -17.3873988381
 H        -6.5717695638        2.3365039258      -18.2963165098
 H        -8.1126458683        1.8638907530      -17.5669136211
 H        -4.9643264276        2.6784473579      -14.9188460116
 H        -4.6067502878        3.3639185552      -16.5535632973
 H        -4.7443454067        1.5524887114      -16.2569426211
 H       -11.7060116869        6.2005501960      -13.1711094135
 H       -12.0600799842        7.1608052551      -14.6058723796
 H       -11.7068257766        8.0775353466      -13.1132663633
 H        -8.3537304561        8.4837758378      -14.6652935051
 H        -9.6933234223        9.0825219831      -13.9129925168
 H        -9.8840829870        8.7481173846      -15.5324976927
 H        -4.5411389871        7.6326953069      -10.3500857068
 H        -4.8585224064        8.1898982489      -12.0036522825
 H        -3.2882827538        7.4401598179      -11.7173967800
 H        -4.7310182161        4.5998067874      -13.4455104146
 H        -3.1952742400        4.9155113017      -12.7655407130
 H        -3.9390304247        6.0666645617      -13.8206132325
 H        -5.1121966486        1.0182608832       -7.1025222556
 H        -4.3407760514        2.5035832651       -6.6334777461
 H        -3.9148916261        0.8187293939       -5.9446986785
 H        -0.6789603045        1.0172071521       -7.2725586749
 H        -1.7426638439        1.9123269121       -6.0748193484
 H        -1.1370910222        2.7202698449       -7.4868820797
 H        -0.0303363680       -6.1048066851      -10.7823462730
 H         0.3754438724       -4.6279740964      -11.7011780580
 H        -1.3071211831       -4.9399419613      -11.1237324015
 H        -0.2504394056       -6.1088199405       -8.4417429123
 H        -1.7703921901       -5.2603891933       -8.5355466342
 H        -0.5421486927       -4.5288607855       -7.5207464557
 H         6.1331551266       -4.1474852997       -5.5446069856
 H         4.9059437369       -3.5078360565       -6.5728558421
 H         6.4772829313       -3.8969807037       -7.2721574541
 H         6.6490816992       -6.0208914592       -8.4669309922
 H         6.0989798605       -7.4598016483       -7.7106547627
 H         7.2321810028       -6.4135256990       -6.9178456078
 H         1.9891084866      -10.3387299655       -3.9828880977
 H         0.5973622550       -9.7432937659       -4.8922535461
 H         0.3989496755      -10.4669905040       -3.3798571810
 H         0.2340717989       -7.2594518320       -1.7333109924
 H        -0.4640967043       -8.7509088517       -1.3750659702
 H        -0.7893324003       -8.0212096799       -2.9291731902
 H         5.7944074500      -11.2163352388        2.6408953144
 H         5.1308554478      -11.7229711952        0.9520707331
 H         4.2021493150      -10.8450937254        2.3561303865
 H         6.9060264742       -8.8716028615        3.0316687077
 H         5.1813318728       -8.4668792408        3.0088201839
 H         6.1585368883       -7.5835246860        2.1904285734
 H         9.4735901554      -12.5879735352       -3.1523649693
 H         8.5368178522      -11.8364277423       -1.7269537415
 H        10.2270814679      -11.4866510088       -2.0963746719
 H        10.6611794134      -10.0136833064       -3.9464671988
 H         9.3666106379       -9.1389278712       -4.8394206912
 H         9.8239542299      -10.8094475324       -5.2671895270
 Na        5.5073974144       -8.2381171704       -3.0640608563
 Na      -10.6509244863        3.0729782809      -13.2775038211
