232

 C         6.9227372824      -12.4227407807       -4.2913957991
 C         7.2485561945      -10.9057777919       -4.0088386193
 O         6.3022882944      -10.0986321881       -4.1968246431
 C         8.6514042329      -10.4917486151       -3.3391962413
 C         8.4977527045       -9.1847369566       -2.4559607542
 O         8.0771163556       -8.1714052265       -2.9583207000
 C         9.0289414920       -9.2366753791       -1.0161719259
 C         8.1853186139       -8.8882967912        0.1856606236
 C         6.9784532715       -9.9183329271        0.3603652991
 O         7.0222281309      -10.9410759807       -0.3356873912
 C         5.7423308370       -9.6630666745        1.2459631054
 C         4.8338432962       -8.9764936556        0.1283886269
 O         5.3628334621       -8.1317807772       -0.5940919209
 C         3.3946601187       -9.3781380607        0.3114200149
 C         2.4387628744       -8.5154303071       -0.4831603740
 C         2.4516762394       -8.7769209725       -2.0451196709
 O         3.4910618922       -9.1499318601       -2.5438620827
 C         1.2291173220       -8.5178254261       -2.9502189954
 C         1.6617695739       -7.1448912707       -3.6772075530
 O         1.3902569400       -6.1472813298       -3.0878527325
 C         2.5903818259       -7.2088911372       -4.8809364196
 C         3.5892732150       -6.0771984597       -4.8579615603
 C         4.8756421066       -6.5221127749       -5.5801109367
 O         5.7402311167       -7.0978542010       -5.0074596439
 C         5.2326027251       -5.6386387067       -6.8805497688
 C         3.9206197604       -5.7387635172       -7.8888625672
 O         2.9598077609       -6.3550407747       -7.4976594986
 C         3.9924119117       -5.0907620829       -9.1965115596
 C         2.6249216880       -4.8016299456       -9.8787041161
 C         1.5007781905       -4.1560057919       -9.0132615591
 O         1.7090438239       -3.6029247585       -7.9653175004
 C         0.0048235492       -4.3235681870       -9.4299753949
 C        -0.3497235185       -2.8167456296       -9.5418726535
 O         0.1388256866       -2.1406271716      -10.3852867820
 C        -1.3524702542       -2.1496931359       -8.5763000870
 C        -1.6212646337       -0.6940977882       -9.0418912958
 C        -2.9631708014       -0.1214757786       -8.4505792390
 O        -4.0060194961       -0.7256111092       -8.4658039041
 C        -2.9682361186        1.3916487776       -7.8318001389
 C        -3.1573315898        2.2928001381       -9.0982600113
 O        -2.1705467440        2.5912037075       -9.7550896331
 C        -4.6117191608        2.5655712281       -9.6675397257
 C        -4.6927588500        3.3928676268      -10.9393520161
 C        -5.0319292396        4.8475992893      -10.6305528516
 O        -5.3712740625        5.2356108558       -9.5349177932
 C        -4.9564130282        5.8311613206      -11.8380113730
 C        -6.4367524239        6.2169620528      -12.2820024863
 O        -6.7983512689        6.0931916545      -13.4731062755
 C        -7.3881143242        6.7646626143      -11.2424773452
 C        -8.6106243168        7.4086613469      -11.9248946553
 C        -9.2989124752        6.3221919789      -12.8771485737
 O        -9.6206963220        5.2182615573      -12.3815463465
 C        -9.9345624761        6.8039391982      -14.1710611935
 C        -9.8781673183        5.6891971002      -15.1984611445
 O       -10.5216383895        4.7096639241      -14.8447500772
 C        -9.0838797140        5.7467188788      -16.5295213978
 C        -8.3869554421        4.3920951018      -16.8622856040
 C        -7.0992772345        4.1832433015      -16.1426441682
 O        -6.4685224782        5.1019095699      -15.6901270850
 C        -6.6244575777        2.6536743976      -16.0216659449
 C        -7.3642703604        2.0432741216      -14.8093394522
 O        -8.4681123397        2.3854141825      -14.4341573000
 C        -6.6771619822        0.7922539731      -14.1236306538
 C        -7.5501992321        0.2297933611      -12.9462155850
 C        -8.5360280816       -0.8669739649      -13.2746881399
 O        -8.4004398686       -1.4809093122      -14.3008340748
 C        -9.8481727747       -1.1936675001      -12.3732208356
 C       -10.8119060132        0.1144268027      -12.2211135689
 O       -10.3141556343        1.1976940425      -11.9214731282
 C       -12.2717817775       -0.0448794553      -12.7260923366
 C       -12.2140342061        0.0634322835      -14.2637301194
 C       -12.7695702221        1.3461155145      -14.8710237479
 O       -12.3279490995        2.4272929079      -14.5809515243
 C       -13.9750847829        1.3256641896      -15.8517531955
 C       -13.5540625289        1.7093297610      -17.3266101944
 O       -13.6205762083        0.8537036681      -18.2228017686
 C       -12.9126534306        3.0765786619      -17.5611361966
 C       -12.2372911024        3.0530560600      -18.9524539581
 C       -11.4962283952        4.4201612144      -19.3617169289
 O       -11.5982213279        5.3552374749      -18.5825556505
 C       -11.0357220162        4.6764606810      -20.8327538680
 C       -10.3827253604        3.4095848075      -21.4177084277
 O       -10.9290908912        2.3607746277      -21.1285127615
 C        -9.1008276950        3.4943270649      -22.2560457154
 C       -12.3751617731        4.9174809420      -21.5026312588
 C       -10.0425381508        5.9995460085      -20.8061392064
 C       -14.8214432712       -0.0569585977      -15.9363449188
 C       -15.0831656828        2.2684669447      -15.2792740200
 C       -10.5927584424       -2.4654837108      -12.8536788827
 C        -9.2977461674       -1.4701244410      -10.9380902884
 C        -7.0789963773        1.9813608426      -17.3753664944
 C        -5.0143422162        2.6093083988      -15.9758246639
 C       -11.5006790063        7.0591932808      -13.8303315483
 C        -9.4073836150        8.1603108431      -14.7272508045
 C        -4.2813667581        7.1408450286      -11.2214146766
 C        -4.1591466295        5.4913687590      -13.0711432932
 C        -4.1156859843        1.3191839168       -6.8565855259
 C        -1.6995136905        1.6928345354       -7.1081534300
 C        -0.0631917316       -4.9381101351      -10.8871638206
 C        -0.5973555228       -5.1352357894       -8.2995373205
 C         5.6657682168       -4.2232368137       -6.4299306501
 C         6.4756310608       -6.3931203855       -7.4915138016
 C         0.8544689427       -9.6852065420       -3.8827748931
 C        -0.0414320754       -8.2042294105       -2.0115626077
 C         5.2097545546      -10.9622593386        1.8315086903
 C         5.9785901567       -8.6226245778        2.3534408119
 C         9.2869332276      -11.7302507284       -2.7354955550
 C         9.6245025525      -10.0131733311       -4.4902754810
 H         5.8960669812      -12.5211438296       -4.5216226205
 H         7.2173727633      -13.0367837625       -3.3823646656
 H         7.5390672329      -12.7066551124       -5.1341639108
 H         9.8839767099       -8.5548235776       -0.8817041498
 H         9.4140918837      -10.2158525085       -0.6420381613
 H         7.7325432918       -7.8609897990        0.1875558582
 H         8.9056802942       -8.8718895320        1.0498732730
 H         3.1363230320       -9.6102081901        1.3571368151
 H         3.3209204220      -10.3341001707       -0.1198132190
 H         2.6499545442       -7.5077236093       -0.4407321490
 H         1.4551096231       -8.6517567027       -0.0203986852
 H         1.9869427610       -7.2922197520       -5.7903318235
 H         3.1971502608       -8.1216662921       -4.9793651549
 H         3.9210480501       -5.8739143171       -3.8127501503
 H         3.0672836727       -5.1618741664       -5.1469577657
 H         4.4024642811       -5.6947043087       -9.9105973527
 H         4.4652698579       -4.0807672563       -9.2207826742
 H         2.2358478022       -5.6722394233      -10.3721780107
 H         2.8044727830       -3.9708006216      -10.6012210264
 H        -0.8815499482       -2.2422384671       -7.5263629168
 H        -2.3014550235       -2.6928857214       -8.7483734972
 H        -1.7168283965       -0.4862475595      -10.1353612953
 H        -0.8556902391        0.0239946537       -8.8203327800
 H        -5.3278594323        2.9545541741       -8.9018953860
 H        -4.8604185093        1.5290962830       -9.8662127971
 H        -5.3935904493        3.0974027158      -11.6650237078
 H        -3.7503126141        3.3460309452      -11.5164412813
 H        -6.8572710132        7.3764031901      -10.5409902513
 H        -7.7025818495        5.8499916393      -10.5979858173
 H        -8.3245515603        8.2338663173      -12.6246235331
 H        -9.3650561269        7.7051908248      -11.1966890399
 H        -8.3408219531        6.4861787706      -16.5369760826
 H        -9.7562083754        6.0963576377      -17.4108129317
 H        -8.2643598727        4.3365503592      -17.9623919618
 H        -9.0088859242        3.5837250119      -16.5764409759
 H        -5.6930890074        1.0222252536      -13.7432739444
 H        -6.5760076996       -0.0705876928      -14.9097810620
 H        -8.2726691808        0.9569304502      -12.4950328102
 H        -6.7033719191       -0.0626061194      -12.2057165611
 H       -12.9101247138        0.7263945089      -12.2263249879
 H       -12.6474585626       -1.0332212909      -12.4024922000
 H       -12.6359436938       -0.8344357246      -14.7461737623
 H       -11.2060410699        0.0924197538      -14.6406060764
 H       -12.2309402677        3.3879262760      -16.7598035860
 H       -13.6939734079        3.8080793331      -17.5010199005
 H       -12.9019033105        2.7305811705      -19.7535841348
 H       -11.4308603533        2.3117952587      -19.0267276875
 H        -8.3166671713        4.1827816814      -21.9568050635
 H        -9.4159917699        3.8476096073      -23.2999741136
 H        -8.7496501916        2.5014768663      -22.2934412187
 H       -12.9228499794        5.6397603094      -20.9250159426
 H       -12.9935637068        4.1115811462      -21.6206691795
 H       -12.3248152767        5.2140259066      -22.5225664308
 H        -9.5027317224        6.0977522343      -21.7078669968
 H        -9.2415593125        5.8248214122      -20.0060746807
 H       -10.6072779323        6.9272377248      -20.5018125913
 H       -15.6252413047        0.1888090319      -16.6290882222
 H       -15.3418489693       -0.2849588382      -14.9676163258
 H       -14.1985650569       -0.7928470967      -16.4188018240
 H       -14.7615334906        3.3370805963      -15.3074668252
 H       -15.3868919212        1.9406160341      -14.2858596951
 H       -15.9300416589        2.2097030200      -15.9473344702
 H       -11.6674715374       -2.3749986733      -12.5800735146
 H       -10.1124021458       -3.3194884613      -12.3947866843
 H       -10.3926587696       -2.4456041191      -13.9675164300
 H        -9.9708861806       -1.4247783776      -10.0780792718
 H        -8.4339140430       -0.7206354136      -10.8321750813
 H        -8.7298688960       -2.3667211614      -11.0921878525
 H        -6.6864710119        0.9046689756      -17.4122300746
 H        -6.6816066903        2.4956783963      -18.2366357031
 H        -8.1527556067        1.9601811867      -17.5432654793
 H        -4.6497052911        3.3004408085      -15.2214988283
 H        -4.5896081027        2.7413297808      -16.9447610066
 H        -4.7505037752        1.5872113751      -15.6420593337
 H       -11.7533042666        6.4459899438      -12.9326225362
 H       -12.1016059168        6.7831825390      -14.6499969121
 H       -11.6140557673        8.1456747202      -13.6098494406
 H        -8.3610956698        8.1276486491      -14.8572083615
 H        -9.5279292989        9.0713452833      -14.2254388612
 H        -9.8530627986        8.4094139553      -15.6969629711
 H        -4.4368230455        7.2125935461      -10.0859243825
 H        -4.7557904513        8.0062586533      -11.6709672566
 H        -3.2536118192        7.1066739583      -11.5125486938
 H        -4.7210873014        4.7657355225      -13.7079470014
 H        -3.2526731206        4.9924591041      -12.9278855922
 H        -4.0374311546        6.3879617304      -13.7075127263
 H        -4.9049058888        0.6871320756       -7.2686107046
 H        -4.6262567683        2.3448461989       -6.8239975840
 H        -3.8842559696        0.7909706467       -5.9216227551
 H        -1.0739713138        0.7716518419       -7.0265525880
 H        -1.8056271476        2.1928544192       -6.0967235644
 H        -1.0288252707        2.3962595402       -7.6730321303
 H        -0.1913047487       -5.9953174958      -10.8782420805
 H         0.8270174636       -4.6350924710      -11.5083544948
 H        -0.9644151275       -4.6261180008      -11.4231872049
 H        -0.0305541263       -6.0144722504       -8.2400324612
 H        -1.5710061229       -5.4450432627       -8.4579408513
 H        -0.5701235815       -4.4901310994       -7.3623702613
 H         6.1523449332       -4.2256381310       -5.4469658456
 H         4.8345289630       -3.4949521791       -6.3352090768
 H         6.4083027059       -3.8125333729       -7.1203605395
 H         6.9505889408       -6.0033202186       -8.3519890970
 H         6.1565062929       -7.3699154057       -7.7325598893
 H         7.2152185481       -6.5246748364       -6.7332488285
 H         1.6366977072      -10.3907893493       -4.2329472551
 H         0.4519954108       -9.3379599585       -4.8083934292
 H         0.0941843910      -10.2985611855       -3.4331483096
 H        -0.0072638194       -7.2438738674       -1.4768449295
 H        -0.0761505953       -8.9021756233       -1.2486858776
 H        -0.9492095486       -8.4046172988       -2.6006416786
 H         5.9387857534      -11.2933565633        2.5579174710
 H         5.0535242777      -11.5999287693        0.9766607550
 H         4.2935420292      -10.7835877006        2.5385897157
 H         6.6688344444       -8.9058104672        3.1616505806
 H         5.0887629405       -8.0969251559        2.6921678469
 H         6.3929196802       -7.6983799383        2.0028861405
 H         9.4719647912      -12.4559215746       -3.5033044250
 H         8.6358766199      -12.0610236244       -1.9521512018
 H        10.2576980886      -11.4945855153       -2.2677817180
 H        10.6161163772       -9.7818778906       -4.0113851980
 H         9.1958178473       -9.1252905853       -5.0344197833
 H         9.8937659352      -10.8136291557       -5.1861681903
 Na        5.4552541053       -8.1743866215       -3.1385054549
 Na      -10.4869809592        3.2306273298      -13.2966477839
