232

 C         6.9503457048      -11.9890773331       -4.8767128784
 C         7.1467353361      -10.8881048530       -3.8628741312
 O         6.1922830604      -10.6320920519       -3.2276928423
 C         8.6130465461      -10.2423377937       -3.7206131004
 C         8.5552329740       -9.1110169160       -2.7195651400
 O         7.8413513425       -8.1198268719       -2.8332625317
 C         9.4745109908       -9.0547381168       -1.3918251904
 C         8.6583070267       -8.7496819821       -0.1674912914
 C         7.5206713030       -9.8612911748       -0.0805294374
 O         7.6589348395      -10.8797964019       -0.6853104111
 C         6.1658869021       -9.5961059284        0.8658036124
 C         4.9659883295       -8.9274075593        0.0446135270
 O         5.1285140203       -7.8490727039       -0.5152859199
 C         3.5905447957       -9.5674768523        0.2298313500
 C         2.3357065197       -8.7198675200       -0.3244430384
 C         2.1836077774       -8.8857890876       -1.9498771645
 O         3.1967598544       -9.4137571236       -2.5429502079
 C         1.0061958597       -8.2886942752       -2.6853922431
 C         1.4388786382       -6.9002079916       -3.5270016529
 O         0.8418872966       -5.8867620272       -3.1940071430
 C         2.4112849231       -7.0534114284       -4.7283661958
 C         3.3689507116       -5.8631481752       -4.8056096456
 C         4.5788864160       -6.3291727145       -5.5222845318
 O         5.1175211290       -7.3165696633       -4.9822354977
 C         5.2469787631       -5.6593678300       -6.8714109305
 C         4.3086290135       -5.8332141437       -8.1319126035
 O         3.8004595289       -6.9408328345       -8.2006520602
 C         4.3073293463       -4.8252709890       -9.2284391741
 C         2.9313007905       -4.6841096547       -9.9226698593
 C         1.7883367716       -4.2346455142       -8.9296543980
 O         1.9461875689       -3.7254550644       -7.8252309111
 C         0.2801206866       -4.3281091453       -9.3955600756
 C        -0.3017588541       -2.7809702165       -9.5800630244
 O        -0.1482263504       -2.2889110197      -10.7016132080
 C        -1.1385430687       -2.1244171967       -8.4289406202
 C        -1.5445434638       -0.6971964499       -8.7769403264
 C        -2.7928768276       -0.2883348743       -7.9902200094
 O        -3.5436025047       -1.0735325526       -7.4367137426
 C        -3.1574311392        1.2487825099       -7.8711368669
 C        -3.1717808963        1.7737751601       -9.2609222657
 O        -2.1548870144        2.0219739034       -9.8301595229
 C        -4.5163203194        2.0396666663      -10.0530666118
 C        -4.3913768283        3.3614457245      -10.8131584370
 C        -5.3287105896        4.6659512827      -10.6355896679
 O        -6.2144801721        4.6643902334       -9.8317225409
 C        -5.0858910477        5.8303860618      -11.6617162037
 C        -6.4924641922        6.2613820150      -12.2099439587
 O        -6.8582994539        5.8833757043      -13.2744846893
 C        -7.3202146470        7.1140933516      -11.2790634243
 C        -8.7259164936        7.2989308644      -11.7105606044
 C        -9.1491272586        6.3052746530      -12.8151912953
 O        -9.4684658944        5.1297082549      -12.4535656605
 C        -9.7346082749        6.8058331439      -14.1679673980
 C        -9.5076825397        5.6472281937      -15.2614330963
 O        -9.9539840184        4.5456331948      -15.1197845741
 C        -8.8750933494        5.9390412178      -16.5970783458
 C        -8.3243627478        4.6468841490      -17.0616220756
 C        -7.0339795451        4.2449820870      -16.3054968916
 O        -6.2787671612        5.0925234698      -15.8437749500
 C        -6.5657200170        2.7588245743      -16.1758307410
 C        -7.5442074015        2.0211921687      -15.1180577274
 O        -8.4784509894        2.7043893912      -14.7070077427
 C        -7.0061642247        0.6912134817      -14.4597683783
 C        -7.6636786088        0.2975187416      -13.1379178150
 C        -8.7096651056       -0.8772066660      -13.3739782206
 O        -8.7472945658       -1.4846645727      -14.4172277003
 C        -9.8842430727       -1.1622373877      -12.2672918075
 C       -10.8190148175        0.0485859317      -12.2300526942
 O       -10.3229187056        1.1680938959      -12.2322992156
 C       -12.3989645079       -0.0911218182      -12.5128941191
 C       -12.6141429442        0.1426632061      -14.0335183126
 C       -13.1097620319        1.4344609230      -14.5889736401
 O       -12.5137856201        2.4890788119      -14.3937074314
 C       -14.2427875624        1.6029084282      -15.6490023554
 C       -13.6801593536        1.7272571400      -17.2490833220
 O       -14.1558998530        0.9789104434      -18.0392086448
 C       -12.6190492999        2.7484047223      -17.5352380237
 C       -12.2706363113        2.8443878107      -19.0402534520
 C       -11.5934225971        4.1918448274      -19.2848930737
 O       -11.2971759307        4.8855614747      -18.3354279917
 C       -11.2939830645        4.6816491530      -20.7433316753
 C       -10.4526476316        3.5267592835      -21.5125388873
 O       -11.0172390496        2.4803691939      -21.7502896143
 C        -8.9889100573        3.6388075176      -21.7658114812
 C       -12.6814704465        4.9136286410      -21.4375923710
 C       -10.4250238939        6.0576881491      -20.6584108024
 C       -15.2390848690        0.4023654967      -15.5751350627
 C       -14.9352922474        2.9606640880      -15.3679628170
 C       -10.5774431864       -2.5866720336      -12.5479309634
 C        -9.0879033270       -1.3464970445      -10.8951468660
 C        -6.4493671847        1.8726763965      -17.5496870569
 C        -5.1768566032        2.6602869598      -15.6549671620
 C       -11.3111348264        6.9200052675      -13.6877955870
 C        -9.1825926320        8.1131568826      -14.6604743875
 C        -4.2788381234        6.9361357035      -10.7749695494
 C        -4.1935374605        5.2940153361      -12.8233795968
 C        -4.5266459131        1.2438319475       -7.1739097261
 C        -2.0285473846        1.8845374548       -6.8111987276
 C        -0.2820596495       -5.0578738326      -10.5803453473
 C        -0.3953293816       -4.9871922822       -8.1312964792
 C         5.4783289603       -4.1084672394       -6.3903589452
 C         6.6273245651       -6.3090779752       -7.0457007861
 C         0.5191410885       -9.3254270818       -3.7965215367
 C        -0.1290196094       -7.8569446680       -1.7521551424
 C         5.8986298116      -11.0649842069        1.4987405402
 C         6.5257907684       -8.6587377863        1.9463632568
 C         9.6394711934      -11.3858958965       -3.4014801874
 C         9.1174473110       -9.4894913193       -4.9437805939
 H         6.4899738003      -11.5291330449       -5.7939044497
 H         6.3407869874      -12.7040041908       -4.4490588707
 H         7.9520480693      -12.4069873295       -5.0609740862
 H        10.3570903882       -8.3992775683       -1.5490340042
 H         9.8884340834      -10.0169126562       -1.1785845234
 H         8.1302675352       -7.7695889089       -0.1551540055
 H         9.1103540348       -8.7499033995        0.8877124011
 H         3.5338945660       -9.6149987945        1.2807903239
 H         3.5624229444      -10.5916532800       -0.1346971747
 H         2.2774642411       -7.7087349074        0.0888091418
 H         1.4637848714       -9.1730146763        0.0912250670
 H         1.7089614116       -7.2705830355       -5.5933027209
 H         3.0638399365       -7.8850589518       -4.6639335858
 H         3.5875786256       -5.8009554257       -3.7144301973
 H         2.9522633948       -4.9276209931       -5.1405464405
 H         5.0925875070       -5.1733816684       -9.9176214374
 H         4.4896216954       -3.8969138708       -8.8959151365
 H         2.6079288481       -5.7427187868      -10.1348599006
 H         2.8884796155       -4.0555266946      -10.8089469930
 H        -0.4035405527       -1.9802002375       -7.5568152062
 H        -1.9297645185       -2.8925545017       -8.1546192842
 H        -1.7687838273       -0.5646138673       -9.8392209560
 H        -0.8370987280        0.0571153800       -8.5061807142
 H        -5.3089835463        1.9092889975       -9.4264231513
 H        -4.5138905584        1.2036224126      -10.8304539732
 H        -4.6084690995        3.0716782125      -11.8329614736
 H        -3.3760098982        3.6640834685      -10.9377847248
 H        -6.8245788426        8.1446615056      -11.0090861014
 H        -7.2906315729        6.7761484687      -10.2147247339
 H        -8.9949717054        8.2971104474      -11.9770295526
 H        -9.3615329328        7.0185294660      -10.8103009891
 H        -8.1430033676        6.8101580785      -16.6340170529
 H        -9.6456803466        6.2490207155      -17.2787000646
 H        -8.0586611257        4.8177450125      -18.1193790765
 H        -9.0933694550        3.9276757856      -17.0117426736
 H        -5.9249979517        1.0828814219      -14.1941544258
 H        -7.0410755398       -0.1093973827      -15.2064057371
 H        -8.0430723365        1.3342037444      -12.8627361047
 H        -6.9151611884       -0.1164608764      -12.3921406746
 H       -12.8347788196        0.7578959606      -11.9566368589
 H       -12.7469192282       -1.0941562322      -12.2207990085
 H       -13.1904683674       -0.6273335011      -14.4340617027
 H       -11.6252667550        0.0513021622      -14.5600100470
 H       -11.7479197457        2.5810129534      -16.9018774880
 H       -12.9921370801        3.6979933861      -17.1651505101
 H       -13.1635477436        2.8336129894      -19.7543048529
 H       -11.6307810690        2.0865548664      -19.4211982487
 H        -8.4746144834        3.4439798637      -20.8257837868
 H        -8.6342543968        4.5833158771      -22.0360403224
 H        -8.6469503309        2.7640706003      -22.4122019734
 H       -13.2471996789        5.6160309887      -20.9310759503
 H       -13.2899036575        4.0190798695      -21.4183932267
 H       -12.7165373198        5.1065814021      -22.4886280684
 H       -10.8452217839        6.6969874544      -21.5492191504
 H        -9.3494828763        5.9122781707      -20.6741801989
 H       -10.7472466998        6.6799537762      -19.8036532501
 H       -15.9909704000        0.8428175649      -16.2747367268
 H       -15.6107589559        0.3515912549      -14.5896934140
 H       -14.7628171055       -0.5177361209      -15.9900767417
 H       -14.2053633925        3.7608919498      -15.2673382278
 H       -15.5063851452        2.8492908766      -14.4738759534
 H       -15.4576764713        3.2968211836      -16.2514405138
 H       -10.4777540685       -2.6687951576      -13.6099205742
 H       -11.6439318355       -2.4522821090      -12.2146120071
 H       -10.0454030532       -3.2706158813      -11.9046369095
 H        -9.8493735548       -1.6372080962      -10.1366770515
 H        -8.5604004867       -0.4516279316      -10.6183267571
 H        -8.3874742534       -2.2485452572      -10.9114323030
 H        -6.1846186960        0.8703253875      -17.2863761545
 H        -5.5492936376        2.1966725069      -18.1007839730
 H        -7.3584210062        1.9082685282      -18.2177974051
 H        -4.5113919231        3.0411111396      -16.4529124127
 H        -4.7944075370        1.6621695749      -15.3241495913
 H        -5.0269268052        3.3380070418      -14.8716726618
 H       -11.9127049026        6.0792354992      -13.9991999574
 H       -11.8018928468        7.9052928388      -14.0689138945
 H       -11.2719720013        6.9941839741      -12.6169674615
 H        -8.1308605611        8.1996867448      -14.8921604995
 H        -9.3702760327        8.9931208459      -14.0232892982
 H        -9.6180622907        8.3749282759      -15.5784051906
 H        -4.9439352634        7.2249030606      -10.0077111978
 H        -4.1386268275        7.8240440842      -11.4481834308
 H        -3.3679888316        6.4596456376      -10.3841685040
 H        -4.6587307156        4.5607822562      -13.4114443515
 H        -3.2321398539        4.8042963269      -12.4846396324
 H        -3.9703115700        6.1067753274      -13.4901175457
 H        -5.2462122464        0.6348786620       -7.8039683468
 H        -4.8264890778        2.2742137195       -7.1277491120
 H        -4.3995623973        0.8911869729       -6.0953411778
 H        -2.6361456327        2.3763856780       -5.9943712531
 H        -1.2974433762        2.6377464246       -7.2369682378
 H        -1.4010366080        1.0325803412       -6.3727584960
 H        -0.5107473512       -6.1686009566      -10.3386548907
 H         0.4621972210       -5.1596127395      -11.3740655321
 H        -1.1854832315       -4.5773382838      -10.9685166404
 H         0.0849958604       -5.9341655617       -7.9053807540
 H        -1.4832516729       -5.1336040520       -8.3920335416
 H        -0.2841138420       -4.3727240932       -7.3330402911
 H         5.8286139189       -4.0604742213       -5.3647194895
 H         4.6279602018       -3.4072597224       -6.5490373353
 H         6.2755852558       -3.6404111444       -6.9920483449
 H         7.0828138465       -5.9245144183       -7.9346330775
 H         6.6121961272       -7.3561741716       -7.2275372790
 H         7.2203568059       -6.0879507543       -6.2255380708
 H         1.2312931448       -9.7199213573       -4.4442819873
 H        -0.2041847716       -8.9101473711       -4.4802620839
 H         0.0703423882      -10.2526773574       -3.3503107082
 H         0.3100234708       -7.1320784379       -1.0703772932
 H        -0.4100414400       -8.7727544615       -1.1925253118
 H        -0.9580681804       -7.3674289786       -2.1927352454
 H         6.7583394093      -11.3048211712        2.1986139633
 H         5.8310824056      -11.9177384551        0.7357579325
 H         5.0000189365      -11.0014681242        2.0419777018
 H         7.5487503166       -8.7083312256        2.3236697688
 H         6.1207940530       -8.9155321172        2.9291694864
 H         6.4530020578       -7.5555220128        1.8052534584
 H         9.6895146435      -12.0058125072       -4.3058735656
 H         9.2747506382      -12.0809299869       -2.6593306469
 H        10.5909510142      -10.9827838930       -3.1441025767
 H        10.1402986131       -9.2316067150       -4.7603575884
 H         8.4072223128       -8.6908953354       -5.1731526391
 H         9.0357123264      -10.1412458080       -5.8599892504
 Na        5.3342283834       -8.2448719776       -3.0105508012
 Na      -10.5714907388        3.1278201889      -13.3583696626
