232

 C         6.9172070678      -11.8633264580       -5.0706105068
 C         7.1686322160      -10.8647822066       -3.9823373748
 O         6.3360009600      -10.6624275345       -3.1358781031
 C         8.6131471747       -9.9802449053       -3.9644589457
 C         8.4139693552       -8.8934268805       -2.8287837586
 O         7.4429180957       -8.2081419450       -2.8046227151
 C         9.3949718465       -8.9127976934       -1.6219406858
 C         8.5582531357       -8.5799391296       -0.3458423053
 C         7.5226588320       -9.6555032656       -0.1829924547
 O         7.5331297435      -10.6598646560       -0.8093959071
 C         6.3371722527       -9.5658194502        0.8362915907
 C         5.1583604003       -8.9650220090       -0.0883242040
 O         5.3478121382       -7.9577545809       -0.7366697336
 C         3.7650923124       -9.6988464990       -0.0359643627
 C         2.6213994574       -8.8092202996       -0.4515401215
 C         2.2836388684       -8.7477461087       -1.9926370197
 O         3.0755191099       -9.2880634162       -2.7836292947
 C         1.0143518135       -8.1717490956       -2.5695120096
 C         1.4219684053       -6.9282208368       -3.4196059570
 O         1.0680206558       -5.8037903430       -3.0747028842
 C         2.2905111695       -7.1696771643       -4.6302526032
 C         3.0578967913       -5.9408633732       -5.2482282575
 C         4.5214372102       -6.2801875418       -5.6090604547
 O         5.1671256224       -7.0761502146       -4.9136773293
 C         5.2190501310       -5.4960096422       -6.7177035647
 C         4.5346980628       -5.8325121483       -8.0947497407
 O         4.0493087347       -6.9397810295       -8.2832794678
 C         4.2286501228       -4.7773344204       -9.1217986816
 C         2.8217265922       -4.8257235703       -9.7246065323
 C         1.7484194987       -4.3227167305       -8.8238280870
 O         1.9847883537       -3.8430251972       -7.7459727655
 C         0.2500881392       -4.3781029500       -9.2317136166
 C        -0.2056422080       -2.9052223682       -9.4576547823
 O        -0.2295485474       -2.4142586513      -10.6014943406
 C        -0.7609652975       -2.1235948766       -8.2102538658
 C        -1.4496802283       -0.7740036972       -8.6217079986
 C        -2.6825594876       -0.4064327772       -7.7350951913
 O        -3.1933746110       -1.1641443541       -6.9142822344
 C        -3.2965635225        1.0452027752       -7.8008952409
 C        -3.2670204510        1.6521713817       -9.2120068517
 O        -2.2008382050        1.8061925237       -9.7280572017
 C        -4.5230099451        2.2838813020       -9.8533430613
 C        -4.2035539839        3.2135793092      -11.0598396938
 C        -5.2391745212        4.4026871890      -10.9190120522
 O        -6.2286430811        4.2297234541      -10.2765120552
 C        -5.0671065291        5.7851576227      -11.6385728431
 C        -6.5606522596        6.1959012994      -12.1199205468
 O        -6.9087724415        6.0007370800      -13.2520926778
 C        -7.5036255544        6.6382178627      -11.0823109584
 C        -8.8987754182        7.1509541676      -11.5382185498
 C        -9.3598021365        6.2030910893      -12.6649426181
 O        -9.4077326877        5.0121292583      -12.2887366274
 C        -9.6992133670        6.6605668155      -14.0578367466
 C        -9.5734539977        5.5894977264      -15.1990549885
 O       -10.4299898558        4.6964599280      -15.2500670806
 C        -8.6539737882        5.8411962905      -16.2972206479
 C        -8.1369323148        4.5275780856      -16.8671683321
 C        -6.7254142007        4.1926366298      -16.3737168936
 O        -5.9368648035        5.0982826950      -16.1437541111
 C        -6.3477816034        2.6447691078      -16.1946162152
 C        -7.2563329667        1.8812747239      -15.1867533677
 O        -8.2851773899        2.3822853928      -14.7640200162
 C        -6.8809436927        0.4526688954      -14.7752081034
 C        -7.6544976374        0.1509250688      -13.4325835098
 C        -8.8827569316       -0.8339720209      -13.5981203342
 O        -9.2407221266       -1.3041492034      -14.6591027953
 C        -9.8453618090       -1.0046333740      -12.3585694119
 C       -10.7789309692        0.2556885398      -12.5293946858
 O       -10.3251986514        1.3428361505      -12.1543092542
 C       -12.2867709986        0.0768850822      -12.7352721376
 C       -12.7366504832        0.1272357849      -14.2102508532
 C       -13.1871482601        1.5542651662      -14.6056856625
 O       -12.5569281375        2.4755387269      -14.1558612490
 C       -14.3609045918        1.8129926881      -15.6209374332
 C       -13.7181715931        1.6409605939      -17.0363398896
 O       -14.1709304965        0.8835288002      -17.8400066811
 C       -12.3956151153        2.4446513340      -17.4637874767
 C       -12.5517727138        3.0919490427      -18.8373035521
 C       -11.6080475880        4.2548087346      -19.1395663235
 O       -10.8591693899        4.6721139981      -18.2808034265
 C       -11.4489106536        4.6915704862      -20.6275317156
 C       -10.6012160117        3.5641950032      -21.4086865149
 O       -11.1644963132        2.5755596766      -21.8300749083
 C        -9.1327335298        3.7415594783      -21.4940712280
 C       -12.8341803172        4.6209498347      -21.3844307024
 C       -10.6112245557        6.0175939095      -20.6743462653
 C       -15.5677183695        0.7440116422      -15.3839722466
 C       -15.0231574504        3.2492018794      -15.4857093659
 C       -10.6691774071       -2.3849181215      -12.3985760298
 C        -9.3108044693       -0.8219659851      -10.9376109427
 C        -6.5538564902        1.9407408576      -17.5147922076
 C        -4.8543257273        2.5523682109      -15.8575723565
 C       -11.2394970256        6.9618565734      -14.1289766887
 C        -8.9340362307        8.0417179587      -14.3958832244
 C        -4.4991433813        6.7429963125      -10.4371798287
 C        -4.2013967285        5.7636917768      -12.8984051464
 C        -4.7409894247        0.9220796596       -7.0345111316
 C        -2.3617086725        2.0391099025       -6.9719489459
 C         0.2262452391       -5.2629958185      -10.5369169028
 C        -0.4965553752       -4.9732732374       -8.0926258066
 C         5.2946434905       -4.0246225802       -6.3178842258
 C         6.7309371356       -5.9626948400       -7.0496398593
 C         0.3659657768       -9.2614003771       -3.3147232516
 C         0.1123543441       -7.7191245979       -1.3927137180
 C         5.9527606345      -10.9828650251        1.3855216530
 C         6.6585030378       -8.6638606407        2.0171323473
 C         9.7943598650      -10.9868053531       -3.7958904636
 C         8.6667990322       -9.4237723442       -5.4530300989
 H         6.9780952024      -11.2924628598       -6.0093412611
 H         5.9737691860      -12.2332996097       -4.9249287831
 H         7.6650325318      -12.6176269141       -4.9465475920
 H        10.0938563358       -7.9972681419       -1.7590416935
 H        10.0449316537       -9.8027044746       -1.4691816066
 H         8.0274274971       -7.6891011138       -0.3665306751
 H         9.1027672630       -8.5303587482        0.5536668032
 H         3.5325996365      -10.0255121632        1.0295594081
 H         3.7484008598      -10.5865206502       -0.6797194078
 H         2.6866455687       -7.8052090619       -0.1298137020
 H         1.7513694053       -9.1453147228        0.1566443762
 H         1.7349009155       -7.5036095722       -5.5327122522
 H         3.0065264051       -7.9542171689       -4.4180525784
 H         3.1500978344       -5.1131096262       -4.5167626873
 H         2.4511796038       -5.6027003415       -6.0525863386
 H         4.9842950081       -4.8498192438       -9.9932758614
 H         4.3258355253       -3.7905389911       -8.7202480268
 H         2.7022936757       -5.9191821978       -9.8753585545
 H         2.8019947814       -4.3515952553      -10.7300681501
 H         0.0920462285       -1.8598845371       -7.6064011409
 H        -1.2986853819       -2.7995982042       -7.6515810876
 H        -1.8497502027       -0.9761875178       -9.7247543897
 H        -0.8138884856        0.0813706608       -8.5748766434
 H        -4.9902013377        2.8975578322       -9.0821700742
 H        -5.2146172225        1.3588949462       -9.9949416882
 H        -4.3567750465        2.7760845314      -12.0348983885
 H        -3.2017544148        3.7338000692      -11.1199722234
 H        -7.1160490003        7.2273352016      -10.3149005228
 H        -7.7386429609        5.7885897112      -10.4974726948
 H        -8.8707870378        8.1928217583      -11.8374307508
 H        -9.6117199048        7.1053864798      -10.6871988743
 H        -7.8371086896        6.5370472897      -16.1183522304
 H        -9.2927223761        6.3202065915      -17.1069902775
 H        -8.0506810525        4.8408954881      -18.0060227769
 H        -8.8635789647        3.7586523918      -16.7607350528
 H        -5.8283562729        0.4737130235      -14.4573673536
 H        -7.1227963671       -0.3146524033      -15.4527723281
 H        -8.1039054143        1.0682648528      -13.1494400319
 H        -6.8663447047       -0.0830181163      -12.7144623759
 H       -12.7466630338        0.9394920864      -12.2220021076
 H       -12.6217563348       -0.8402926610      -12.2618011556
 H       -13.4569920664       -0.6660374132      -14.3676582405
 H       -11.8460636986       -0.0572786918      -14.8915834794
 H       -11.5913458093        1.7203172487      -17.2442883172
 H       -12.2973790488        3.2301603904      -16.7128799658
 H       -13.6363474183        3.2820393153      -18.9634603199
 H       -12.2976458450        2.4009341924      -19.6090036157
 H        -8.7006364682        4.2358628682      -20.6618170642
 H        -8.9962551515        4.4458758948      -22.3241866032
 H        -8.5379684062        2.8067212587      -21.6864870586
 H       -13.6989141207        4.9924231589      -20.7789908105
 H       -13.1610846927        3.5848735487      -21.6653309758
 H       -12.9590674748        5.3146270348      -22.2792548667
 H       -10.1464414420        5.9948394016      -21.6823657386
 H       -10.0181650509        6.0260208774      -19.8246843590
 H       -11.1645793233        6.9231037149      -20.6640721539
 H       -16.4132878422        1.1457060939      -15.9804332877
 H       -15.6329920119        0.7830883939      -14.3633252462
 H       -15.2156672864       -0.2641801719      -15.6286131466
 H       -14.3494294438        4.0871047572      -15.8724591591
 H       -15.2399356391        3.4604875034      -14.4315861006
 H       -15.9108578299        3.2868539977      -16.0985552525
 H       -10.3464053321       -2.8747566449      -13.2339992005
 H       -11.6994774282       -2.1451422061      -12.3698088960
 H       -10.4308539735       -2.8586596094      -11.4598530373
 H        -9.9343535065       -1.1684270309      -10.1429042695
 H        -8.9614618757        0.1996539696      -10.6681147436
 H        -8.4587545210       -1.5189102326      -10.9014863535
 H        -6.1513452986        0.9271860685      -17.4928010398
 H        -6.1678814496        2.5330017297      -18.3107635960
 H        -7.6915752984        1.7636959422      -17.5973454440
 H        -4.2079072136        3.2273529635      -16.4362672220
 H        -4.5575717671        1.5618359043      -16.2739420064
 H        -4.5266967246        2.5698541533      -14.8528737376
 H       -11.7772967858        6.2594034818      -13.5662540697
 H       -11.5412779359        6.8537555694      -15.2316415845
 H       -11.4703549119        7.9496967505      -13.8335284386
 H        -7.8705914517        8.0704878773      -14.1316027722
 H        -9.3435813518        8.9480657181      -13.8913590486
 H        -8.8702231589        8.2805096480      -15.4675938851
 H        -5.1576781171        6.5893427429       -9.5910980379
 H        -4.4297670521        7.7731628232      -10.8244426088
 H        -3.5451389121        6.3828427341      -10.1649245262
 H        -4.5941916848        5.0129644766      -13.5839499289
 H        -3.1535592514        5.5002785307      -12.7001726854
 H        -4.1224419098        6.7267667122      -13.4295195194
 H        -5.4188610334        0.5484444660       -7.7378206774
 H        -5.0208337835        1.8192255616       -6.6201863842
 H        -4.6347169431        0.2285968276       -6.1877653823
 H        -2.2372865858        2.9212035282       -7.4975202815
 H        -1.3832004205        1.6275143650       -6.8308851923
 H        -2.7602425955        2.1506000773       -6.0180064899
 H         0.8260537453       -6.1699651805      -10.4208380581
 H         0.6609093171       -4.7906891072      -11.4128267362
 H        -0.7521810151       -5.4390519323      -10.7884264887
 H        -0.2480880503       -6.0496640478       -8.1139757042
 H        -1.6143604669       -4.7139107007       -8.0360947054
 H         0.0605961623       -4.5569132334       -7.2850576789
 H         5.9978778023       -3.9180351678       -5.5453320484
 H         4.3255771833       -3.6244473810       -5.9216972333
 H         5.5473171877       -3.3982421285       -7.1492882213
 H         7.1566467793       -5.2091706607       -7.7993760901
 H         6.8829223598       -7.0161391057       -7.4272300401
 H         7.3882619564       -5.8016035583       -6.1764142061
 H         1.0130727222       -9.7922230405       -3.9607624220
 H        -0.5559374832       -9.0588836305       -3.8762976012
 H         0.0234906948      -10.0789018374       -2.5391534684
 H         0.4618679744       -6.8276319372       -0.8611039187
 H        -0.2820972302       -8.5519386029       -0.8558306796
 H        -0.6777516617       -7.2120648109       -1.9497739749
 H         6.9013369513      -11.4888817693        1.5862377452
 H         5.5634496870      -11.5770909652        0.5406438165
 H         5.2015678346      -11.0578171912        2.1464524112
 H         6.9888351174       -9.1429371669        2.8906793677
 H         5.8053539707       -8.2768498717        2.5040700210
 H         7.4238880967       -7.9679639491        1.8962662604
 H         9.6734340849      -11.8629033829       -4.4944796510
 H         9.6743783706      -11.4825386801       -2.8325310165
 H        10.8344953875      -10.5767208006       -3.8939204548
 H         9.5087586313       -8.8094877202       -5.5878645622
 H         7.7494053903       -8.8366720353       -5.6766565181
 H         8.6471942445      -10.2547507850       -6.1512024068
 Na        5.3232683803       -8.7495325060       -3.0384155407
 Na      -10.3793864016        3.2283059398      -13.3297652024
