232

 C         7.1801534543      -12.0888094847       -5.2730902501
 C         7.1684432577      -10.9752183580       -4.1193869286
 O         6.1733949692      -10.9242993858       -3.3741030104
 C         8.4098218107       -9.9381537051       -4.0777506408
 C         8.2789144757       -8.8641503751       -2.9262520700
 O         7.5263506473       -7.8804930677       -3.1156192029
 C         9.2746148435       -8.7440353915       -1.8069421407
 C         8.4681671419       -8.5225653149       -0.5437795440
 C         7.5591159403       -9.7507729745       -0.2106063613
 O         7.7420914289      -10.7415456420       -0.9458513420
 C         6.4169394027       -9.6203621787        0.7833353589
 C         5.2756119979       -9.0460100499       -0.0910756430
 O         5.5076781538       -8.1043516930       -0.8417290237
 C         3.9191577095       -9.6923723546       -0.1915238692
 C         2.7922297774       -8.6586343666       -0.5101167665
 C         2.3423522125       -8.8395426013       -1.9339877705
 O         3.0159981160       -9.3225732199       -2.7916279409
 C         1.0188103815       -8.0861530527       -2.4691489651
 C         1.6003731263       -6.8969453683       -3.3889603596
 O         1.3701708242       -5.7755838053       -3.0627091765
 C         2.2653256146       -7.3256308511       -4.7123020431
 C         3.0093564825       -6.1915899621       -5.4570693674
 C         4.5090682094       -6.4169586039       -5.5852401213
 O         5.1372616958       -7.0903275870       -4.8228975388
 C         5.1563955324       -5.3950012091       -6.5765954201
 C         4.5070252612       -5.7136071103       -7.9872684872
 O         4.1633249678       -6.8728766485       -8.1551521860
 C         4.2946235604       -4.6538704573       -9.0433199284
 C         2.8054211152       -4.8615669582       -9.5980705175
 C         1.7457474332       -4.3701910158       -8.6633870806
 O         2.0562602448       -3.9029339131       -7.5648854496
 C         0.2486898836       -4.4267854944       -9.1422399695
 C        -0.2334920016       -2.9543909925       -9.3632788232
 O        -0.2250396309       -2.5392356676      -10.4717467552
 C        -0.5790431198       -2.0157387623       -8.1796946300
 C        -1.3952358144       -0.8339156838       -8.5872540031
 C        -2.4849831207       -0.5709353477       -7.5634143665
 O        -2.8463418471       -1.3187041724       -6.7168167930
 C        -3.1682733950        0.9399616626       -7.6698918528
 C        -3.1589111151        1.4739201153       -9.1652064738
 O        -2.1533042885        1.4414311287       -9.8669813751
 C        -4.4249810103        2.2104630453       -9.8405869499
 C        -4.1860075799        3.1740611986      -10.9589044041
 C        -5.3337591089        4.2159407915      -11.0212105230
 O        -6.4340252954        3.9937206496      -10.5222670091
 C        -5.1314109972        5.7163094349      -11.5156067843
 C        -6.5879282466        6.1378572804      -11.8744788260
 O        -6.9952154063        6.3232845519      -13.0417947819
 C        -7.6473675971        6.5040312967      -10.8886559062
 C        -8.8761823845        7.0765474973      -11.6634193671
 C        -9.4905187381        6.1042082757      -12.6488219091
 O        -9.7970792124        4.9946923806      -12.3260496896
 C        -9.9221604098        6.7892288099      -14.1397534184
 C        -9.6063419182        5.6295491808      -15.1371454507
 O       -10.3292485657        4.6634573076      -15.2599541813
 C        -8.4318641295        5.7104183850      -16.1968309807
 C        -7.9075530924        4.3932748140      -16.8537391762
 C        -6.5180962788        4.0054373826      -16.3801667478
 O        -5.6490735710        4.7957696577      -16.1635496300
 C        -6.3177505494        2.4645682726      -16.2923461464
 C        -7.3575607974        1.8847268799      -15.1627340042
 O        -8.2219120944        2.6128905077      -14.7547785490
 C        -6.9594146625        0.4103253598      -14.7586278125
 C        -7.5799282516       -0.1857886602      -13.4832656943
 C        -8.9724480285       -0.6834489636      -13.6322867606
 O        -9.3859086326       -1.1262729155      -14.6892224741
 C        -9.9160991415       -0.9117807603      -12.3786553675
 C       -10.9052032694        0.3594957773      -12.4761657178
 O       -10.3504258536        1.3981681124      -12.2727432024
 C       -12.4250035090        0.3149099437      -12.6974918180
 C       -12.7268312502        0.3651390285      -14.2137677053
 C       -13.2188919612        1.7438148862      -14.6140500313
 O       -12.6511517857        2.7411625241      -14.1351210914
 C       -14.3345072241        1.8584842864      -15.6325122032
 C       -13.7143729290        1.6128393633      -17.0890154230
 O       -14.2259325472        0.7581629676      -17.7744376592
 C       -12.4625453466        2.5681702558      -17.3845858451
 C       -12.8038716919        3.2733958587      -18.7022757561
 C       -11.5913972974        4.1338765300      -19.1071590256
 O       -10.6450909719        4.3444903067      -18.3514681307
 C       -11.5593198767        4.6382055201      -20.5854490913
 C       -10.6873064055        3.5300137636      -21.3223636260
 O       -11.1123005937        2.4976662651      -21.7373089216
 C        -9.1099133128        3.6867739164      -21.3667144311
 C       -13.0084554105        4.7096883688      -21.2702879355
 C       -11.0378862157        6.0693214281      -20.6281835039
 C       -15.6148166653        0.9431627536      -15.4283707791
 C       -14.7536321193        3.3652531278      -15.5757910366
 C       -10.5870269665       -2.3100597032      -12.4591086283
 C        -8.9431355732       -0.8015042381      -11.1905175765
 C        -6.6662147103        1.9254523469      -17.6064947077
 C        -4.8436538831        2.2256386082      -15.8948372134
 C       -11.3746965936        7.2409989550      -13.9722532251
 C        -9.0264335913        7.9742669109      -14.4697521235
 C        -4.4398697409        6.6201217824      -10.4650484598
 C        -4.2609269689        5.9575648318      -12.8210430837
 C        -4.6962816445        0.9044794429       -7.3253361296
 C        -2.4269574566        1.9221941888       -6.5685239710
 C         0.0235149921       -5.1408299656      -10.5091312044
 C        -0.5856067293       -5.2384774719       -8.0823290513
 C         5.0662074084       -3.8976643293       -6.1806981716
 C         6.5891680170       -5.7402536170       -6.8820170068
 C         0.1474643263       -9.1025091641       -3.1930594066
 C         0.1471779047       -7.4593128780       -1.3441885655
 C         6.0727823294      -11.0167563816        1.4804746321
 C         6.6676638630       -8.4829859351        1.9108275182
 C         9.7318914932      -10.7727361453       -3.9672304167
 C         8.3767305966       -9.0530337103       -5.3166112974
 H         7.2474049839      -11.5966942774       -6.1957884677
 H         6.1654718755      -12.5940789612       -5.1975481177
 H         7.9498702735      -12.7987703213       -5.0290649545
 H         9.8527674966       -7.8757987165       -1.7988204860
 H         9.8888375332       -9.6462954388       -1.8312806398
 H         7.7304773292       -7.6291075397       -0.7120609972
 H         9.1810041176       -8.1390155524        0.2646547031
 H         3.6222779215      -10.2874039720        0.6235548084
 H         4.0466344710      -10.3536480669       -1.0579104414
 H         3.1428162750       -7.6147471789       -0.4069179209
 H         1.9749581222       -8.6672556745        0.1822407061
 H         1.5903178325       -7.7156035274       -5.4409571301
 H         3.0101780122       -8.1198125588       -4.5000553456
 H         2.8968996823       -5.2944975835       -4.8493981483
 H         2.5731941866       -5.9398951179       -6.4632467313
 H         4.9273714211       -4.8294627351       -9.8212918890
 H         4.5085010321       -3.5780079636       -8.8002623869
 H         2.7622509052       -5.8825440867      -10.0035217587
 H         2.7713077915       -4.1875033926      -10.5009168985
 H         0.3917976646       -1.6399644805       -7.7837735319
 H        -0.9897798602       -2.6270061353       -7.2575440610
 H        -1.7327612366       -0.8760620967       -9.5359737608
 H        -0.7911625457        0.0842724082       -8.3704577967
 H        -4.9875459311        2.6574322936       -8.9976183182
 H        -4.9407865793        1.3882964059      -10.1518701323
 H        -4.3082706826        2.6244778221      -11.9129423518
 H        -3.2845492192        3.7034936394      -11.0066201281
 H        -7.3083227190        7.1767784351      -10.0355458719
 H        -8.0568124988        5.6234230380      -10.2600885282
 H        -8.5674850672        8.0524613771      -12.1032162607
 H        -9.7320388758        7.3057082103      -11.0415631441
 H        -7.5435608298        6.2829507120      -15.8816401976
 H        -8.9269514884        6.3484570129      -16.9322860799
 H        -7.7947712195        4.4696383719      -17.8561951068
 H        -8.7521653068        3.6599824910      -16.6665183080
 H        -5.8965466322        0.3610221830      -14.5220359512
 H        -7.2636855591       -0.3868982781      -15.5537213392
 H        -7.4258694333        0.5112126366      -12.5791226089
 H        -6.8514459891       -1.0267688190      -13.3389532641
 H       -12.8903894266        1.1332780257      -12.0929780559
 H       -12.8443211866       -0.6520998122      -12.3088836436
 H       -13.4648211222       -0.4366303525      -14.4290595221
 H       -11.8133845153        0.0829335247      -14.6680877115
 H       -11.6234760724        1.8987807504      -17.4914612186
 H       -12.3427076258        3.1454653930      -16.4788015941
 H       -13.6089760369        3.9773880675      -18.5317694408
 H       -13.2520832169        2.4823220720      -19.3832894586
 H        -8.7906828212        4.3675076443      -20.5381888172
 H        -8.5879621191        4.0172015380      -22.2916715437
 H        -8.7002756187        2.7651223960      -21.1077833181
 H       -13.6164852188        5.4776391308      -20.8333611009
 H       -13.5918701129        3.8355937113      -21.2644834421
 H       -12.9162517988        5.1197920839      -22.2249301021
 H       -10.7286093677        6.3528076321      -21.6005609417
 H       -10.3585089742        6.1670042381      -19.7024291569
 H       -11.8565226419        6.7567152754      -20.2641004037
 H       -16.2989318983        1.3060198932      -16.1289205670
 H       -15.7445463902        0.9373710103      -14.3076491699
 H       -15.2191737976       -0.0075555804      -15.6513415650
 H       -13.8666803330        3.9362437390      -15.4891901237
 H       -15.2099151556        3.5277229233      -14.5830461157
 H       -15.4608070342        3.7479418244      -16.3393639573
 H       -10.7185689237       -2.5189601904      -13.5583320529
 H       -11.4409585743       -2.2986426236      -11.8187811702
 H        -9.8343584660       -2.9442737869      -11.9974516477
 H        -9.5224820721       -0.8303435058      -10.2169375707
 H        -8.6189575165        0.2556113402      -11.1019649096
 H        -8.1351339762       -1.5261018437      -11.1276551511
 H        -6.4050817130        0.8363544731      -17.5767183739
 H        -6.1322398812        2.4830967547      -18.3911873419
 H        -7.7180791295        1.9322494095      -17.7593131306
 H        -4.1836580621        2.8810052826      -16.4596846631
 H        -4.4471782683        1.2516635405      -16.0869279184
 H        -4.6840327463        2.4567912792      -14.7901073290
 H       -11.9589243971        6.3154647112      -13.6592661412
 H       -11.7764740438        7.6936346016      -14.8133833275
 H       -11.4591283450        7.9758216393      -13.1053202612
 H        -7.9516282869        7.7425711287      -14.5235987078
 H        -9.0273883894        8.7906813070      -13.7671549079
 H        -9.2234935635        8.4494560139      -15.4536337835
 H        -5.0249555854        6.7142693355       -9.5329654793
 H        -4.1420600247        7.4734268677      -11.0037943001
 H        -3.4853759908        6.0995884041      -10.2258306114
 H        -4.5827741264        5.5834063898      -13.8099328668
 H        -3.2603436517        5.7075799164      -12.5908711585
 H        -4.0832338550        7.0061390075      -12.9082349913
 H        -5.2969008587        0.3001264901       -8.0412835494
 H        -4.9801477016        2.0294622077       -7.2817591950
 H        -4.8073444262        0.5619467960       -6.3188615125
 H        -2.0510975589        2.8735685741       -7.0508742406
 H        -1.5469087568        1.4078087985       -6.1145227232
 H        -3.1374085615        2.0526135181       -5.7083797199
 H         0.7953915007       -5.8577847222      -10.6539552332
 H         0.0393188728       -4.5014530343      -11.4057311012
 H        -1.0420168025       -5.5304872986      -10.5628999060
 H        -0.2547430100       -6.2605517413       -8.1224834864
 H        -1.5126143033       -5.1591564653       -8.4956983767
 H        -0.5663380876       -4.7857699678       -7.0421734611
 H         5.3913102466       -3.7671426002       -5.1076522557
 H         4.0676207763       -3.5251483578       -6.2244003780
 H         5.6651674582       -3.2753247192       -6.8679996113
 H         6.9943810794       -5.1227876819       -7.6303807346
 H         6.5886286628       -6.7655585438       -7.1750573444
 H         7.2929148102       -5.6730458388       -6.0452758611
 H         0.5012362833       -9.1910899726       -4.2534235643
 H        -0.8578720530       -8.7215975108       -3.2506965935
 H         0.0173452407      -10.0686050437       -2.8796715877
 H         0.7554861936       -6.8884089774       -0.6787451587
 H        -0.2628306389       -8.3357020597       -0.9101305999
 H        -0.6198977866       -6.7530879988       -1.7044290800
 H         6.8749887343      -11.3921209785        2.1256270049
 H         5.8341555324      -11.8195009543        0.7768628274
 H         5.0825787357      -10.8751792679        2.0671303172
 H         7.5964968500       -8.4970264557        2.5528023943
 H         5.8717868246       -8.3266994354        2.6571361996
 H         6.8985948084       -7.5521208921        1.3749849473
 H         9.8773063294      -11.3626906875       -4.8489619477
 H         9.8816925988      -11.4330107768       -3.1026421281
 H        10.5824388662      -10.0818351764       -4.0201828120
 H         9.0215069474       -8.1389881681       -5.2401754325
 H         7.4150921831       -8.5583936724       -5.3047036688
 H         8.5069007134       -9.6362942149       -6.2005618611
 Na        5.3394648076       -8.5809532687       -3.1126570036
 Na      -10.2442133567        3.1777980601      -13.6781868309
