232

 C         7.6024377466      -12.2051696870       -4.3590807711
 C         7.2945987993      -10.7289875007       -4.6135924190
 O         6.1890955262      -10.2651913124       -4.4948561185
 C         8.4655492163       -9.6388866532       -4.7729242219
 C         8.2482626063       -8.8396244782       -3.4413970922
 O         7.3236974984       -8.1193197200       -3.3061780266
 C         9.2496262196       -8.9753616737       -2.1152165099
 C         8.5243551446       -8.5642877590       -0.8689655855
 C         7.8107950935       -9.7667174646       -0.2720441939
 O         8.2393929817      -10.8497436713       -0.5097745590
 C         6.6106294304       -9.5704102283        0.7735143090
 C         5.4053695260       -9.0282910121       -0.1733974561
 O         5.5196413157       -8.1775600697       -1.0496823161
 C         4.1060201942       -9.8635768650       -0.0272751124
 C         2.7914655212       -8.9770139225       -0.2732880032
 C         2.3722994831       -8.8924908832       -1.7200780532
 O         2.8402847312       -9.5730908604       -2.5903559180
 C         1.2196967039       -7.8997250042       -2.2408481532
 C         1.8011727409       -6.9275870165       -3.3294808691
 O         2.2802487177       -5.8434316361       -2.9996056928
 C         1.9044652013       -7.3885311484       -4.7128175858
 C         2.6473870653       -6.4224100300       -5.6990916200
 C         4.1774952627       -6.2510400624       -5.6630334950
 O         4.8313312937       -7.0238063908       -4.9318104480
 C         4.7731546693       -5.0703973029       -6.4125901933
 C         4.4762200912       -5.3696378225       -7.9691562059
 O         4.6081413038       -6.5281998084       -8.3544204038
 C         4.1260245268       -4.2840900151       -8.9383625375
 C         2.8108532704       -4.6361385035       -9.6840405798
 C         1.7459132562       -4.5422929183       -8.6505838000
 O         1.9770802025       -4.2753683851       -7.4787254465
 C         0.2977204034       -4.6354092247       -9.0719365814
 C        -0.1857393903       -3.1219244521       -9.2729571969
 O        -0.3854157290       -2.7305170477      -10.4096388725
 C        -0.3524651698       -2.2857184615       -7.9940788290
 C        -0.6621731999       -0.7908617532       -7.9962270237
 C        -2.1346894182       -0.5489482685       -7.5103068050
 O        -2.5085195222       -1.4273624169       -6.6972005780
 C        -3.0495793565        0.7657923168       -7.6601277169
 C        -3.1400493855        1.3353591791       -9.0633107525
 O        -2.1891082639        1.2529158324       -9.7850915876
 C        -4.4561776013        2.1577653639       -9.3407583699
 C        -4.1912225091        3.2855394888      -10.3017059524
 C        -5.4921089134        3.8756113461      -11.0167362471
 O        -6.4566897115        3.2064055233      -11.1549977168
 C        -5.3654604205        5.4767250222      -11.3790826096
 C        -6.7493429721        5.9554532243      -11.9178354639
 O        -6.7587853957        6.4807343746      -13.0060652933
 C        -7.8969023590        5.9598951659      -10.9641810276
 C        -9.0110668054        6.9271100597      -11.5657903016
 C        -9.5069278327        6.1378793280      -12.8301049473
 O        -9.5156048924        4.9434615823      -12.6531204965
 C        -9.9457684190        6.9343507154      -14.2176138478
 C        -9.4041484756        5.8851583793      -15.3002205863
 O       -10.3239971749        5.0582443184      -15.6334979139
 C        -7.9912769365        5.7480535932      -15.7468249500
 C        -7.6724540303        4.4358039884      -16.6043669923
 C        -6.3351803957        3.7810724903      -16.2405444714
 O        -5.4813690075        4.4873685209      -15.7031075179
 C        -6.3753081540        2.2019537577      -16.3932316438
 C        -7.2650593738        1.6436146523      -15.3142519068
 O        -8.0605025828        2.3431464205      -14.7037668729
 C        -7.1443594843        0.1744597411      -15.0884189498
 C        -7.7780785096       -0.5549186226      -13.7900493449
 C        -9.3071222902       -0.5595725956      -13.7870328244
 O        -9.8603082537       -0.4204350239      -14.8584558943
 C       -10.0231177222       -0.7933043462      -12.3785021595
 C       -10.8236789571        0.4899906620      -12.2316961348
 O       -10.1244323809        1.5127258819      -12.1282018851
 C       -12.3043017024        0.5489371669      -12.4063578645
 C       -12.6841061714        0.5602572940      -13.9546568566
 C       -13.1736993099        1.9566065515      -14.3868407352
 O       -12.5618604643        2.9836181103      -14.1502515852
 C       -14.4036453924        2.2115319428      -15.3667058669
 C       -13.7269987771        1.6191195490      -16.8865881312
 O       -14.0689039333        0.5422498419      -17.3286619274
 C       -12.6258414518        2.4638817925      -17.4358541892
 C       -12.9738363355        3.4681512835      -18.5157307730
 C       -11.6000336703        4.0140115392      -19.1554362455
 O       -10.5785900379        4.2002961495      -18.5464742537
 C       -11.7394463574        4.5726975693      -20.6644695282
 C       -10.7810108701        3.5986364132      -21.4741241331
 O       -11.2937954581        2.6428005644      -21.9829530986
 C        -9.2318615303        3.7979356214      -21.4446363191
 C       -13.1621695175        4.5324987261      -21.2118402383
 C       -11.0894051306        5.9942646993      -20.5934422753
 C       -15.6302592530        1.3622984705      -15.0555461970
 C       -14.7337012319        3.6557275727      -15.5152021118
 C       -10.9854648166       -2.0468792203      -12.5424566686
 C        -9.1607260361       -1.0469855140      -11.1616887769
 C        -7.0231821263        1.9597801015      -17.8042006778
 C        -4.8665950812        1.7398715924      -16.3895307570
 C       -11.4585684970        7.1164496201      -14.4497139986
 C        -9.3673895078        8.3662911862      -14.1905062368
 C        -4.9168768118        6.4435706987      -10.2082734989
 C        -4.2648473304        5.6596116414      -12.4790804713
 C        -4.4198672004        0.1868257201       -7.1535400205
 C        -2.6299984095        1.8604654629       -6.5785835913
 C         0.1534004087       -5.4275774942      -10.4850804162
 C        -0.6264020450       -5.1838590638       -7.9342609187
 C         4.4616834525       -3.6963226877       -5.8779065153
 C         6.3199419903       -5.2873428520       -6.3952906022
 C         0.1459883878       -8.7769859838       -2.9100701277
 C         0.5320055697       -7.0435495260       -1.0675914348
 C         6.3109303704      -10.8957199826        1.4693980019
 C         7.0015848384       -8.3646914580        1.6605683155
 C         9.9316971997      -10.2116138025       -5.0268458094
 C         7.9613543131       -8.5607925032       -5.8863759060
 H         8.5464017038      -12.4072946010       -4.9344472245
 H         6.7977881817      -12.7955559150       -4.6408315915
 H         7.7608796190      -12.2336078788       -3.2823155256
 H        10.0770656581       -8.3578014371       -2.3099535796
 H         9.4943186182       -9.9956032990       -2.0176914318
 H         7.6542456420       -7.8325235934       -1.0827588797
 H         9.2677189692       -8.1502436705       -0.0747126962
 H         4.0336930266      -10.2521026374        1.0067297801
 H         4.1389412839      -10.6499838290       -0.7068320412
 H         2.9983363238       -7.9538949310       -0.0235087405
 H         1.8957484487       -9.2736603275        0.3688476703
 H         0.9347884557       -7.5213021260       -5.1396411259
 H         2.3912042390       -8.3931562784       -4.7941367965
 H         2.2236017892       -5.4167772231       -5.4714188171
 H         2.3648276256       -6.6136176686       -6.7406457885
 H         5.0637730415       -4.1772891817       -9.5852732635
 H         4.0464764255       -3.3323151586       -8.4978388862
 H         3.0981850822       -5.5567349537      -10.1837940809
 H         2.6488761787       -3.9788720458      -10.5600845629
 H         0.7087113194       -2.4598648338       -7.5826851211
 H        -0.9578593535       -2.8326663230       -7.1973405250
 H        -0.5016219165       -0.3734875467       -9.0349934889
 H        -0.0421536382       -0.3732624079       -7.2971242347
 H        -4.8500537948        2.3584916320       -8.3852993910
 H        -5.0985318713        1.4846556835       -9.8640347422
 H        -3.5222526973        2.9833607843      -11.0933340133
 H        -3.7653275557        4.1360647112       -9.7724645484
 H        -7.5426612291        6.4309517622      -10.0157425636
 H        -8.4249314376        4.9485226700      -10.7216222255
 H        -8.5463886833        7.9151394471      -11.7729160755
 H        -9.8012858069        7.0666795355      -10.8546116160
 H        -7.3548184787        5.6656633806      -14.9191120403
 H        -7.6043477737        6.6224139176      -16.3408505873
 H        -7.7984321086        4.6668075928      -17.6879397001
 H        -8.4138516707        3.7399352068      -16.4436451432
 H        -6.0893149231       -0.1068626400      -15.1255875231
 H        -7.5947336205       -0.4239969657      -15.9738575746
 H        -7.2542673194       -0.1559588490      -12.8774315245
 H        -7.5021443365       -1.6597260775      -13.6827226860
 H       -12.8369104775        1.3837169684      -11.9349608164
 H       -12.8057552379       -0.2201203755      -11.8159687947
 H       -13.4105739361       -0.2245070285      -14.2428893343
 H       -11.7947937398        0.3409780498      -14.5076302392
 H       -11.9232765669        1.7925787702      -17.9263971179
 H       -12.0895214273        3.0342781779      -16.6668849428
 H       -13.4446852197        4.3366275201      -18.0748222928
 H       -13.5259634015        3.1281769203      -19.4141195218
 H        -8.7595971213        3.3272965532      -20.6294888432
 H        -9.0316172616        4.8665005081      -21.2887664516
 H        -8.7062477506        3.6644531496      -22.4268605184
 H       -13.8044670933        4.9736674601      -20.4787162892
 H       -13.4740760745        3.5223365489      -21.3835313613
 H       -13.2062007918        5.0387099776      -22.1612028547
 H       -10.3762891504        6.2365868012      -21.4763011944
 H       -10.3796653279        5.9962922646      -19.7850953414
 H       -11.9673769066        6.6538419214      -20.5026527838
 H       -16.4203479067        1.7305412596      -15.7775743756
 H       -15.8232772675        1.6479810830      -14.0715599924
 H       -15.2945882410        0.3240251024      -15.2772349076
 H       -13.8413792141        4.2972995251      -15.7815027939
 H       -15.1023482881        4.0327706850      -14.5751206604
 H       -15.6040401854        3.7970471603      -16.0872430988
 H       -11.2191280751       -2.2530734898      -13.5571075142
 H       -11.9060709034       -1.9701276768      -11.9170113513
 H       -10.3626243209       -2.8615065008      -12.1074089276
 H        -9.8544233584       -1.0945047955      -10.3246129519
 H        -8.3857397244       -0.2843123475      -10.8384021171
 H        -8.5509032424       -1.9685826655      -11.1971049137
 H        -6.8157602192        0.9839683092      -18.1815584482
 H        -6.6959992580        2.7395378201      -18.4760580769
 H        -8.1306760956        2.1692136676      -17.6792938515
 H        -4.4296037019        2.0675125978      -17.3562313721
 H        -4.8065545998        0.6326396606      -16.4724728848
 H        -4.1803904035        1.9793238577      -15.5894792153
 H       -12.1111903390        6.3146472722      -14.1557353488
 H       -11.6265462342        7.2563991973      -15.6047356855
 H       -11.7666671266        8.0564062267      -14.0035419469
 H        -8.2812378752        8.3524103681      -14.3087412547
 H        -9.6095077030        8.9324641447      -13.2694375495
 H        -9.8118357620        9.0536840919      -14.9623007897
 H        -5.7209375527        6.3350206291       -9.4430753727
 H        -5.0105792791        7.4569145551      -10.6365714571
 H        -3.9293772573        6.2456838601       -9.8478528879
 H        -4.4401340785        4.9631196919      -13.2715218096
 H        -3.2689797345        5.5506583510      -12.0740270407
 H        -4.4060564750        6.5739077181      -13.0478902174
 H        -4.8050011807       -0.5642489321       -7.8533842023
 H        -5.2260089171        0.8581789039       -6.9532549212
 H        -4.0934112508       -0.4296965894       -6.2377910434
 H        -3.4626061339        2.0518472077       -5.9147336717
 H        -2.2046962877        2.7588201162       -7.1012164980
 H        -1.8885585256        1.4791256006       -5.8673032111
 H         0.0382242142       -6.4865391689      -10.1533956190
 H         1.0078692593       -5.2573833379      -11.1973612501
 H        -0.7655825839       -5.2779842706      -11.0066552470
 H        -0.6725978268       -6.2541369154       -7.9773852289
 H        -1.6665234928       -4.7928330883       -8.1737251395
 H        -0.2380620341       -4.7636717506       -7.0716028735
 H         4.8221527414       -3.5388556147       -4.8739712528
 H         3.3380353172       -3.4928805011       -5.9247573933
 H         5.0434825504       -3.0153238964       -6.4842943306
 H         6.7662786208       -4.3951224747       -6.9146752080
 H         6.6656069185       -6.1908370251       -6.9339780621
 H         6.7211348411       -5.2981214027       -5.3937393031
 H         0.5519183306       -9.5804399398       -3.4162325004
 H        -0.4153333063       -8.1928636155       -3.6064497049
 H        -0.6452557855       -9.1164637165       -2.1452534893
 H         1.2979359345       -6.7199049537       -0.3895403687
 H        -0.0819537365       -7.7267722010       -0.5232367826
 H        -0.1187051619       -6.3592673468       -1.5312582018
 H         7.2046430843      -11.4660528744        1.7591102330
 H         5.7907665669      -11.5187194992        0.7285019545
 H         5.8176049362      -10.9151796046        2.4319407075
 H         7.6406304996       -8.8147582788        2.4219518516
 H         6.1069538180       -7.8238071522        2.0516820436
 H         7.5281477021       -7.4701739841        1.3227257474
 H         9.9252626267      -11.0275623719       -5.7323263140
 H        10.4580523113      -10.5912583648       -4.1797948382
 H        10.6740031219       -9.5194460733       -5.4310384241
 H         8.6832036153       -7.8056716602       -6.0807487725
 H         7.0228364469       -8.0948471827       -5.5259188352
 H         7.8785101959       -9.1094724511       -6.8183557582
 Na        4.8558952759       -8.6010875806       -3.2873721466
 Na      -10.0212340286        3.2630911554      -13.8001902451
