232

 C         7.7564613967      -11.8437074467       -3.9732036784
 C         7.2870999887      -10.7055343002       -4.7651870166
 O         6.1314161774      -10.5275801003       -4.9853592683
 C         8.2805411783       -9.4438143194       -5.0508132029
 C         8.1839138202       -8.8186245596       -3.5718592995
 O         7.2527594150       -8.1111694717       -3.3630655897
 C         9.1912884108       -9.0322996923       -2.4050903297
 C         8.7911086287       -8.6501051976       -0.9367202822
 C         7.9781192480       -9.7930425472       -0.3182539917
 O         8.3038250682      -10.9223083433       -0.5150302449
 C         6.7232272101       -9.4889250660        0.6201682971
 C         5.4635661245       -9.2764818439       -0.2808764378
 O         5.4310319586       -8.3816738367       -1.0695564228
 C         4.0556815257       -9.8547756276        0.2149091918
 C         2.9161872968       -8.9291790960       -0.1703027748
 C         2.5327921539       -8.8578507092       -1.6285795717
 O         3.0157694865       -9.5151814508       -2.5031329489
 C         1.3554755115       -7.9565451454       -2.0368362640
 C         2.0922840391       -7.0664051067       -3.1992640091
 O         2.6809574260       -6.0623869628       -2.7788856821
 C         2.0266576608       -7.5125327247       -4.6717153881
 C         2.5039101563       -6.4527772893       -5.7066819536
 C         4.0305282294       -6.1573543447       -5.5731207335
 O         4.7459664075       -6.7945833811       -4.8012770820
 C         4.7707269163       -5.0126420588       -6.3980908904
 C         4.5145818892       -5.1602511629       -7.9641880330
 O         4.7178231189       -6.2781289740       -8.4398248582
 C         4.1742437792       -3.9420585734       -8.9383390004
 C         2.7961085014       -4.2808428641       -9.5900062635
 C         1.6320328413       -4.4401510393       -8.6351680503
 O         1.7625789054       -4.3897275765       -7.4108177585
 C         0.2117268941       -4.5425149340       -9.1819773849
 C        -0.2140564138       -3.0298655231       -9.2525636575
 O        -0.5870842621       -2.6409401130      -10.3403658289
 C         0.0170512022       -1.9647320306       -8.1825184504
 C        -0.9502441195       -0.7991831933       -8.3220800242
 C        -2.1867378784       -0.8830294146       -7.4858495977
 O        -2.4459895830       -1.7898468752       -6.6748828718
 C        -3.1559644319        0.4440544996       -7.4133351815
 C        -3.2008173948        1.1554719252       -8.8235318268
 O        -2.3493164055        1.0579023177       -9.6439073223
 C        -4.4221977377        2.0461172784       -9.1380588094
 C        -4.1400607316        3.1588989297      -10.1706754053
 C        -5.3484595986        3.8250283286      -10.8270641790
 O        -6.2712960504        3.2317795326      -11.2890372439
 C        -5.2086495076        5.4337319852      -11.1740042247
 C        -6.6972002837        5.9964134430      -11.7143954373
 O        -6.7771857077        6.4185483170      -12.8448866942
 C        -7.9612946570        5.9872771956      -10.8370211518
 C        -9.0542758670        6.8128267172      -11.6084436405
 C        -9.5433376155        5.9866635250      -12.8121358038
 O        -9.7642980052        4.7733210144      -12.6753934550
 C        -9.8344285563        6.7914417672      -14.1512300448
 C        -9.3743599747        5.8759407550      -15.2983476123
 O       -10.1001767799        4.9067556215      -15.5994698513
 C        -7.8978916709        5.8876260924      -15.7819030561
 C        -7.4661885391        4.6668892754      -16.6408152366
 C        -6.4883665671        3.6572046938      -15.9601856315
 O        -5.4760758016        4.0414632020      -15.3829703897
 C        -6.5316527725        2.1893260004      -16.5036190992
 C        -7.4179415828        1.4081777492      -15.5166491218
 O        -8.2057037367        1.9952262726      -14.8123654104
 C        -7.2082729930       -0.1133130401      -15.1956770694
 C        -7.9193512849       -0.4555965618      -13.8503521557
 C        -9.4587934039       -0.3513812854      -13.9285779684
 O       -10.0561964012       -0.3658954734      -14.9956913985
 C       -10.2158886822       -0.6311473633      -12.6084691903
 C       -10.8049674218        0.7265712633      -12.1764747826
 O        -9.9680786006        1.6094805436      -12.0092752724
 C       -12.2666332265        0.9668770220      -12.0968994144
 C       -12.9725132580        0.8026362059      -13.5281384643
 C       -13.2133058510        2.1797956691      -14.2967518695
 O       -12.2901752854        3.0071288410      -14.2097390492
 C       -14.2902107506        2.2940166910      -15.2986705874
 C       -13.6581811126        1.6973548195      -16.6506767353
 O       -14.1240054912        0.6799044801      -17.1117621124
 C       -12.4622310919        2.4241006198      -17.2708174561
 C       -12.7952320954        3.0299175073      -18.6615767563
 C       -11.6916705118        3.9580726885      -19.2566241912
 O       -10.7663173137        4.2239495382      -18.5276611073
 C       -11.7691826715        4.5773166708      -20.6600796763
 C       -10.8288992943        3.6192426060      -21.6549088131
 O       -11.4115636308        2.8400231080      -22.3801966470
 C        -9.3399121387        3.8048159857      -21.7129550060
 C       -13.1457078032        4.5779761437      -21.3279502200
 C       -11.1672726337        5.9292722275      -20.6450638525
 C       -15.5630849822        1.4964896456      -14.8530989757
 C       -14.5519196555        3.8222910984      -15.4342350430
 C       -11.1716772671       -1.8398599367      -12.8103220544
 C        -9.2218567720       -1.0189766457      -11.4476859366
 C        -7.3350394791        2.0609191381      -17.9307646005
 C        -5.0509855377        1.7429645917      -16.6159026964
 C       -11.3088864420        7.0885717499      -13.9892454485
 C        -9.2229918646        8.2593927727      -14.5122260839
 C        -4.7711877739        6.2925258765      -10.0172841300
 C        -4.2391561278        5.7244732694      -12.3625859141
 C        -4.5053050956        0.0594050635       -6.8102363131
 C        -2.3627521531        1.5317190662       -6.4789707422
 C        -0.1057757952       -5.1746294645      -10.6913235681
 C        -0.6038558481       -5.3275211279       -8.0611168302
 C         4.2065111833       -3.7358267625       -5.8829386023
 C         6.2747515245       -4.9650826610       -6.0737210162
 C         0.0565382148       -8.7799815964       -2.4276305828
 C         0.8873941817       -6.8777762547       -0.9156607656
 C         6.5108335974      -10.7825836855        1.5141277245
 C         6.9212433235       -8.2453101925        1.4697178956
 C         9.7048905342       -9.9099560770       -5.4070324920
 C         7.7639008031       -8.5097265826       -6.1692869609
 H         8.5718375508      -12.3492070301       -4.5357279454
 H         6.9305318042      -12.4410079612       -3.8572734033
 H         8.1397109737      -11.4498389746       -3.0481982933
 H        10.0116102232       -8.3534128838       -2.7202076743
 H         9.4863738612      -10.1113937486       -2.5943016622
 H         8.2402120448       -7.7416853155       -0.8400363223
 H         9.7495224546       -8.6725492074       -0.5246683699
 H         3.9502627004      -10.0058247711        1.3101683231
 H         3.8817365072      -10.8250127435       -0.3071374624
 H         3.1261354934       -7.9308189148        0.1050080966
 H         2.0669317936       -9.2546916669        0.3950210491
 H         1.1149746575       -7.8795487965       -5.0664970012
 H         2.6413160529       -8.4657837650       -4.7455782507
 H         1.9495058365       -5.5595186293       -5.5455821270
 H         2.2188132173       -6.7477604363       -6.7507116087
 H         5.0025802365       -3.9674095233       -9.5835677594
 H         4.1442277057       -2.9312830721       -8.5134824962
 H         3.0513378946       -5.2033899538      -10.1070302847
 H         2.6345604777       -3.6303457801      -10.4655200887
 H         0.9712521678       -1.6172755385       -8.4358719746
 H         0.1679833094       -2.3390384241       -7.1984497925
 H        -1.1451442806       -0.7661157362       -9.3781649171
 H        -0.2954219038        0.0424806913       -8.0525831599
 H        -4.7149383147        2.4974788365       -8.1043761366
 H        -5.1737066877        1.3663195490       -9.4983774052
 H        -3.5400195814        2.9158673100      -11.0794560272
 H        -3.6244534732        3.9150719883       -9.5983401674
 H        -7.7237960955        6.5167154762       -9.9571347978
 H        -8.3575765739        4.9206474638      -10.6799971071
 H        -8.4889985713        7.7620737084      -11.8224392446
 H        -9.9223838921        7.0859620953      -11.0413046765
 H        -7.2349338418        5.7126424458      -14.9387325633
 H        -7.5438575542        6.8587225757      -16.2528286170
 H        -6.9332731451        4.9138762760      -17.5542596457
 H        -8.4001022719        4.1697417028      -17.0400912188
 H        -6.2048920350       -0.3884242379      -15.1981343149
 H        -7.5946190757       -0.9893042881      -15.8723931879
 H        -7.5293485149        0.1453381383      -13.0285040195
 H        -7.5660270943       -1.4311797503      -13.5324688151
 H       -12.5497018456        1.9761406230      -11.6863272187
 H       -12.8498040633        0.2512493789      -11.4874838464
 H       -13.8853448543        0.1682369364      -13.2428675372
 H       -12.3958596530        0.1590428610      -14.1879145455
 H       -11.6445705263        1.7540507072      -17.4916545437
 H       -12.0704979828        3.1712770979      -16.5788771619
 H       -13.5601535411        3.7659979990      -18.5615790033
 H       -13.1010059668        2.1655293018      -19.3663230597
 H        -9.0766604173        2.7814617044      -21.7885384107
 H        -8.7165097745        4.1592820471      -20.8547011807
 H        -8.9820874244        4.4250811678      -22.5282981119
 H       -13.8473299120        5.0206763166      -20.5450491045
 H       -13.4736671816        3.5612974720      -21.6124602439
 H       -13.0714812381        5.1171875796      -22.3224560236
 H       -11.1973722831        6.3669114832      -21.6418931229
 H       -10.1367582995        5.7916272997      -20.5289997482
 H       -11.6867734872        6.5664970399      -19.9826782056
 H       -16.3775377925        1.8610565688      -15.4887717694
 H       -15.7448940896        1.7061748843      -13.8335869053
 H       -15.2619999435        0.5161109454      -15.1456455054
 H       -13.5898195001        4.3838198575      -15.6107246891
 H       -14.9713476925        4.2193035394      -14.5007853122
 H       -15.2117560090        4.1235640642      -16.2140221428
 H       -12.0143515843       -1.6096524221      -13.4091357988
 H       -11.5447267672       -2.1237158064      -11.8575316435
 H       -10.5842470065       -2.6630296127      -13.2711858765
 H        -9.7678205489       -1.3562665877      -10.5965296671
 H        -8.4869980837       -0.2347261114      -11.1175658342
 H        -8.5908443003       -1.8487754688      -11.6018603740
 H        -7.2957496417        0.9654237176      -18.1121575570
 H        -6.8332651950        2.4710314400      -18.7501882381
 H        -8.4180696017        2.4563680729      -17.8805507707
 H        -4.5014836670        2.5812584774      -16.9913608169
 H        -4.8399119299        0.9203746516      -17.2317929847
 H        -4.5972392053        1.5156471609      -15.6382252952
 H       -11.9013336418        6.2272146889      -14.1494058257
 H       -11.6847140236        7.8551946552      -14.7048077041
 H       -11.4634017538        7.4250891610      -12.9894160400
 H        -8.2044824399        8.3456027677      -14.1937182298
 H        -9.8421879005        9.0885820310      -14.1501993353
 H        -9.2242842048        8.2866796241      -15.6558007821
 H        -5.4339198626        6.1781204094       -9.1186198605
 H        -4.7468334132        7.3023439838      -10.3013780114
 H        -3.7843646510        5.9255952585       -9.8577747317
 H        -4.6483080364        5.4267152461      -13.3716734461
 H        -3.3411788466        5.1654048080      -12.2252024082
 H        -4.0556095100        6.8370628576      -12.4036412809
 H        -4.7665938358       -0.9191427204       -7.0615757749
 H        -5.2829728483        0.6741640787       -7.2357510864
 H        -4.5634923962        0.1569067922       -5.7120899520
 H        -2.6359506133        1.4141839431       -5.4714929461
 H        -2.6081189694        2.5224734395       -6.8711335658
 H        -1.2903643660        1.4751783398       -6.4874248495
 H         0.6672878846       -5.7188049873      -11.1377666173
 H        -0.4478531436       -4.3392722272      -11.3226386338
 H        -0.8410390231       -5.9084156694      -10.5497269115
 H        -0.1176544804       -6.3020238081       -7.8691837473
 H        -1.6622373482       -5.4560209913       -8.4336467641
 H        -0.4678545412       -4.7823965701       -7.1216681598
 H         4.3636491298       -3.7329188463       -4.8153151657
 H         3.1307939395       -3.6280976990       -6.1343130951
 H         4.8021628595       -2.9402540919       -6.2317894227
 H         6.8261848790       -4.2339506154       -6.6772284842
 H         6.7052529859       -5.9117247310       -6.3762160004
 H         6.3764129887       -4.7812447419       -5.0146431357
 H         0.1835164461       -9.0704634470       -3.4513086724
 H        -0.7592399065       -8.0624493917       -2.4731556402
 H        -0.1263731780       -9.7554865369       -1.7686555662
 H         1.7735138365       -6.1969531971       -0.7556790494
 H         0.8926519315       -7.3934810382       -0.0081763101
 H        -0.1154830717       -6.4586093197       -1.2105279068
 H         7.2522693993      -10.9292234668        2.2811471843
 H         6.5577390357      -11.6889060306        0.9467383837
 H         5.5503001949      -10.8784885800        2.0910519071
 H         7.7287170780       -8.4383231345        2.1718256798
 H         5.9935782915       -7.8937465162        1.9890544287
 H         7.1522992276       -7.3831181010        0.8753201211
 H         9.8330253747      -10.4537727269       -6.3280680182
 H        10.2693752558      -10.5626370713       -4.7383216547
 H        10.3762284854       -9.0161074046       -5.4902953433
 H         8.2526794881       -7.5179038823       -6.0625586538
 H         6.6557646418       -8.4631766166       -6.0770568714
 H         8.0340438786       -8.8388291195       -7.1518533256
 Na        5.0997508878       -8.7030346456       -3.6131814694
 Na      -10.1122057468        2.9283566094      -14.1435972482
