232

 C         7.7664113721      -12.1926296542       -4.5907192709
 C         7.2434507975      -10.7998704572       -4.5282209225
 O         6.1568849740      -10.5326413975       -4.1646049636
 C         8.2454151735       -9.4890523549       -5.0072346520
 C         8.2616823717       -8.7578264199       -3.7264131814
 O         7.2876426563       -8.1623148837       -3.2726058699
 C         9.5365475005       -8.7444793565       -2.8057976520
 C         9.1522533830       -8.4010840782       -1.2925542478
 C         8.2784397227       -9.6464417086       -0.8810172865
 O         8.4969265447      -10.7637509093       -1.3279497921
 C         7.1806279045       -9.5542874799        0.3399181223
 C         5.8391279681       -9.6281510797       -0.4061495488
 O         5.7910218393       -9.2764930704       -1.5499878303
 C         4.5497513183       -9.8938669834        0.3224873003
 C         3.4848788113       -8.9156550342       -0.0519384640
 C         2.9106445328       -8.8764794925       -1.4499397556
 O         3.1791836670       -9.5976032410       -2.3878423693
 C         1.7720072555       -7.7843262899       -1.7816418708
 C         2.4171676599       -7.0077085618       -3.0085889465
 O         2.9564033391       -5.9184293490       -2.7632949674
 C         2.3498701885       -7.5717670285       -4.4186201312
 C         2.7760547695       -6.5372060429       -5.3829229227
 C         4.2121050445       -6.0209793007       -5.3100497585
 O         5.1691254264       -6.7015359319       -4.9150595836
 C         4.5140360773       -4.6483849064       -6.0361121551
 C         4.0517208615       -4.6848505780       -7.5189545501
 O         3.9827358574       -5.7773510084       -8.0906298345
 C         3.5473143734       -3.4525274901       -8.2268810413
 C         2.5645568755       -3.8869207048       -9.3633751325
 C         1.2521690982       -4.3641374317       -8.8048487404
 O         1.2333079464       -4.4918208355       -7.5846219409
 C        -0.0280617857       -4.3981028550       -9.6792292777
 C        -0.4001823270       -2.8213465838       -9.5875040307
 O        -0.9937491558       -2.2617936500      -10.4543351127
 C         0.0048409877       -1.9769605716       -8.3722415323
 C        -0.8126664970       -0.6645468292       -8.3190491252
 C        -2.2509958013       -0.9607024558       -7.8592072540
 O        -2.6103313886       -2.1330971371       -7.8510062967
 C        -3.2062939878        0.1798281542       -7.2850248865
 C        -3.6315333440        0.9648902513       -8.5932139407
 O        -3.2318656893        0.5433498904       -9.6502641746
 C        -4.3569409737        2.2791931296       -8.5223915344
 C        -4.0650008714        3.2225372736       -9.7397201894
 C        -5.2287901053        4.0242284071      -10.1725705153
 O        -6.3398846851        3.6617991259      -10.0284659452
 C        -5.0445210965        5.5391942435      -10.6562536459
 C        -6.3596069434        6.0441596411      -11.3748950719
 O        -6.4016141410        6.0229241109      -12.5750398274
 C        -7.5777989088        6.2357732626      -10.5273114629
 C        -8.6829767269        6.9090078758      -11.3940553480
 C        -8.9839936160        5.8856106680      -12.5553210399
 O        -9.0524156057        4.6325500478      -12.4111518872
 C        -9.2042550019        6.4869787732      -13.9722372967
 C        -8.7043368038        5.5829716471      -15.0869543381
 O        -9.3794786802        4.5890571449      -15.3050260764
 C        -7.5378118746        6.0797475560      -16.0011664559
 C        -7.2433469023        4.8644117875      -16.9856388810
 C        -6.7926109121        3.6573891502      -16.1453915218
 O        -6.4783490210        3.7645075282      -14.9533906499
 C        -7.0482456428        2.1351263543      -16.7664184420
 C        -7.9268449171        1.3260876179      -15.7298235698
 O        -8.9850894596        1.7319472313      -15.2404936435
 C        -7.6063586632       -0.1711035518      -15.5999352971
 C        -8.2835165741       -0.6968441869      -14.2909944863
 C        -9.7990000963       -0.7168112513      -14.2044159577
 O       -10.5481321142       -0.6820313158      -15.1461374476
 C       -10.4436788467       -0.8015685786      -12.8583697046
 C       -10.8303118441        0.7912864924      -12.5279283820
 O       -10.0729703384        1.6292235966      -12.2230563747
 C       -12.2972842635        1.1943154503      -12.3017090349
 C       -13.3066638033        1.0943880974      -13.5002471939
 C       -13.3596570626        2.4266909041      -14.2397855214
 O       -12.4559954010        3.2510637101      -14.0355988744
 C       -14.3951341023        2.6345115519      -15.2534290533
 C       -13.5594743624        2.0678619367      -16.4916387631
 O       -14.0353058976        1.1077259201      -17.0627570301
 C       -12.3449788022        2.8192892900      -17.0220773388
 C       -12.4942774634        2.7539832231      -18.5821413416
 C       -11.4986819564        3.6216554906      -19.3671317932
 O       -10.3016931339        3.6817374493      -19.0855239209
 C       -11.9564478180        4.3070019332      -20.7856375460
 C       -11.2271722994        3.6064912231      -21.9883252859
 O       -11.8065084320        3.0861518903      -22.8954737339
 C        -9.6604940301        3.6258435934      -22.1069874225
 C       -13.4940181047        4.1799279400      -20.9595521569
 C       -11.5965483616        5.8598770542      -20.7656906313
 C       -15.6195121916        1.7174854274      -14.9353110911
 C       -14.7123133067        4.1606140398      -15.5055883740
 C       -11.7137777061       -1.6935508951      -12.9314311612
 C        -9.5390653916       -1.2401699281      -11.7407976486
 C        -7.8206116025        2.2550626627      -18.1161756693
 C        -5.6219166835        1.5722640348      -16.9181811806
 C       -10.7619483163        6.5340356826      -14.0507925506
 C        -8.7199685143        7.9844917256      -14.2049311962
 C        -4.5726888814        6.3670877505       -9.4490548940
 C        -3.9183780614        5.4752004785      -11.7719275874
 C        -4.3349161767       -0.4604117990       -6.4551365719
 C        -2.3101870666        1.2100428802       -6.4378834726
 C         0.2609942263       -4.8662903069      -11.0930659406
 C        -1.0469803176       -5.3970968151       -9.1390108424
 C         3.7162030226       -3.6184458354       -5.3355458536
 C         6.0355241983       -4.3417592126       -6.0605858197
 C         0.5050182023       -8.5834485520       -2.1163757721
 C         1.5312778027       -6.7548117080       -0.5499719066
 C         7.5634891584      -10.7825203959        1.1961428415
 C         7.0821885896       -8.2162175877        1.0999713610
 C         9.6636946653       -9.9315570889       -5.5566814439
 C         7.4048832148       -8.9472969873       -6.2476553036
 H         8.3570420224      -12.4093885445       -5.5225711734
 H         6.9728071794      -12.8411850692       -4.5854698102
 H         8.3602398213      -12.2371878648       -3.6715802257
 H        10.2105849912       -8.0168848029       -3.2035167997
 H        10.0551947849       -9.6999602173       -3.0314458929
 H         8.5242925585       -7.4296451557       -1.2035248138
 H        10.1461478613       -8.3094813131       -0.7559593562
 H         4.7625044474       -9.7913671854        1.3461778310
 H         4.1502129330      -10.8988901977        0.1632663206
 H         3.8074202647       -7.8336409396        0.1063673396
 H         2.6408012392       -9.1181860245        0.6419153467
 H         1.2990638636       -7.8038745368       -4.6672529684
 H         2.8562041267       -8.5450906303       -4.4858086414
 H         2.0132785706       -5.8148496418       -5.4415486581
 H         2.8802096768       -6.9289837404       -6.4508692153
 H         4.4480506923       -2.9133834120       -8.5984070540
 H         2.8573197207       -2.8942031719       -7.5101898727
 H         3.0896439850       -4.7148348730       -9.8453712780
 H         2.4377932209       -3.1171267748      -10.1001889805
 H         1.1311468851       -1.8431190126       -8.4857627955
 H        -0.2791723534       -2.5469515601       -7.4382693202
 H        -0.7865687650       -0.2481286904       -9.3730512159
 H        -0.3052357391        0.2047231104       -7.7480319241
 H        -4.0436719240        2.8553453391       -7.5911931115
 H        -5.3784326134        2.1311433572       -8.3867199592
 H        -3.8483962221        2.6315670056      -10.6320953550
 H        -3.1976935993        3.8455082540       -9.6298971904
 H        -7.3720525840        6.8318318546       -9.7105902306
 H        -7.8447134606        5.1828126090      -10.2376076250
 H        -8.3357227568        7.9309067919      -11.6335159296
 H        -9.5719426211        7.0532656838      -10.7939461702
 H        -6.5912548824        6.3327224757      -15.5014489782
 H        -7.9411584801        6.9528701440      -16.4532033486
 H        -6.4747712194        4.9989293832      -17.6648778833
 H        -8.1585213910        4.5718542462      -17.6142437196
 H        -6.6381084061       -0.3800616300      -15.7952473272
 H        -8.1745163013       -0.7149714590      -16.4407487522
 H        -8.0594471769        0.0108926056      -13.4557107052
 H        -7.9404344994       -1.7256244984      -14.0060605367
 H       -12.3480049189        2.2299587408      -11.9313576365
 H       -12.6081291930        0.4367794157      -11.5998755119
 H       -14.2871504119        0.7543399292      -13.1731720978
 H       -12.9706152891        0.4998989298      -14.3266645522
 H       -11.4668254111        2.2152823602      -16.6937109594
 H       -12.1524176889        3.8138649505      -16.5842754684
 H       -13.4803468672        2.9750638620      -18.8508188619
 H       -12.3242880617        1.7039324333      -18.8366040427
 H        -9.3009890754        3.9461401688      -23.0306275965
 H        -9.2714759319        2.5839326573      -21.9655347890
 H        -9.0621860176        4.2305482007      -21.4150708214
 H       -13.9406812781        4.6654788691      -20.1229112030
 H       -13.8193838139        3.2265358547      -21.2263708942
 H       -13.6416847701        4.9263171372      -21.7141490463
 H       -11.9614007708        6.3760220461      -21.7111215414
 H       -10.5978186223        6.0750446403      -20.4006949657
 H       -12.1337198355        6.3516169362      -19.9034354972
 H       -16.3788427811        2.0997316328      -15.6457112441
 H       -15.8528238413        1.8844136761      -13.8900849156
 H       -15.2445008034        0.6996057324      -15.1628507550
 H       -13.9084092693        4.8320555272      -15.8620000284
 H       -15.1853451150        4.6366689443      -14.6185698861
 H       -15.4051897543        4.2274403763      -16.3358745274
 H       -12.4073414134       -1.2871758759      -13.6230840295
 H       -12.2168085015       -1.8030345656      -11.9925349942
 H       -11.5896419332       -2.7581845266      -13.2681916599
 H        -9.8948068325       -1.1668503720      -10.7074237555
 H        -8.5485509917       -0.6876207166      -11.5957194526
 H        -9.2323104232       -2.2407419471      -11.8418940100
 H        -8.0717689425        1.2427855983      -18.4785174104
 H        -7.2086466794        2.7981548533      -18.7920172220
 H        -8.8398113237        2.7022615849      -17.9789305246
 H        -4.9221603267        2.2765140063      -17.3668017049
 H        -5.6126357247        0.6980646460      -17.5252388550
 H        -5.1545352572        1.3031893595      -15.9308221327
 H       -11.1513836960        5.6680124912      -14.5450867266
 H       -11.0670202636        7.4897664498      -14.5826014177
 H       -11.2786877500        6.5950206879      -13.0882204343
 H        -7.6400505293        7.9828857104      -14.1402285017
 H        -9.2209362558        8.6249675490      -13.4780622857
 H        -8.9444827144        8.2387893815      -15.3004335430
 H        -5.3971306673        6.4099622098       -8.6862490645
 H        -4.2269169358        7.3031924764       -9.7823757070
 H        -3.7267668374        5.9346544874       -8.9110552727
 H        -4.4357455749        4.9769418116      -12.6272351513
 H        -3.0739192038        4.9091537569      -11.5302027775
 H        -3.5270184514        6.4802740623      -12.0090979863
 H        -4.5687990867       -1.4278722097       -6.8362245492
 H        -5.2686129641        0.1055938837       -6.5220673231
 H        -4.1777244621       -0.6077928081       -5.3636798570
 H        -1.5231977129        0.8074245760       -5.8935323980
 H        -2.8448450399        1.8712080382       -5.7573163295
 H        -1.8592450009        1.7952102571       -7.1843526822
 H        -0.3845174502       -4.2743919588      -11.7073672057
 H         0.0289322844       -5.9682943654      -11.2497678241
 H         1.3102208014       -4.8427221575      -11.3454332542
 H        -0.5948712089       -6.3406978620       -9.2431010634
 H        -2.0432646317       -5.3575741358       -9.6880457285
 H        -1.2010045751       -5.0952168522       -8.1389518829
 H         3.8383494682       -3.8343032443       -4.2880011349
 H         2.6468847486       -3.6797769033       -5.6153488654
 H         4.0887691739       -2.7010853804       -5.6804646461
 H         6.1651787034       -3.2706735814       -6.3577797222
 H         6.5551962806       -5.1156361896       -6.6590974088
 H         6.4522239414       -4.4784741214       -5.0327362501
 H         0.9201220755       -9.3360091290       -2.6820593712
 H        -0.3013678213       -8.1026902586       -2.5612534033
 H         0.1559605816       -9.0386321698       -1.1048374862
 H         2.4608582022       -6.2134987042       -0.4776269807
 H         1.2083178897       -7.2412043432        0.3010559056
 H         0.8372832231       -5.9536679899       -0.7790962014
 H         8.4088443124      -10.6925099285        1.8631717738
 H         7.8171419765      -11.6766537404        0.6409826595
 H         6.6965372479      -11.2111584620        1.7980639940
 H         7.2530509189       -8.3730283546        2.1912839546
 H         6.0318530608       -7.8369264412        1.0459049786
 H         7.8909456250       -7.6200240367        0.7194267823
 H         9.5702103791      -10.7069246966       -6.3049838194
 H        10.3623610625      -10.2701245833       -4.7785056589
 H        10.2229539152       -9.1707374222       -6.1254081511
 H         7.6351519336       -7.9039809622       -6.4430576510
 H         6.3787358635       -8.9928753562       -5.9171663264
 H         7.5412324149       -9.6109682276       -7.0425371482
 Na        5.0326900221       -8.4995809578       -3.4517004993
 Na      -10.1175036098        3.0233863391      -13.9109795872
