232

 C         7.8931949648      -12.3933504665       -4.6956192392
 C         7.3060638946      -10.9334867484       -4.5235237254
 O         6.1898385728      -10.7933775816       -4.0454526337
 C         8.2541394515       -9.6010375788       -4.9633594018
 C         8.3967706361       -8.6657481613       -3.7459005084
 O         7.5141953581       -7.8532324292       -3.5856302798
 C         9.6301122346       -8.6067635039       -2.8755634323
 C         9.1148284781       -8.3840193756       -1.4890071284
 C         8.5320636214       -9.7466066738       -0.9520601486
 O         8.8112547900      -10.7622150091       -1.4946876107
 C         7.4132537550       -9.6589762198        0.2595659925
 C         5.9633299526       -9.5745287466       -0.4572479422
 O         5.8954778725       -9.3337519213       -1.6224053740
 C         4.7020835684       -9.9155716094        0.3347997781
 C         3.5401145131       -8.9081368957        0.1323260514
 C         2.8015673889       -8.9081796275       -1.2649052417
 O         3.2612911341       -9.7165892287       -2.0728895019
 C         1.8203969533       -7.8139358127       -1.6423011747
 C         2.4374439856       -7.0207094435       -2.8852759050
 O         3.0124704082       -5.9849337543       -2.6809621417
 C         2.2910930171       -7.6155032983       -4.3653121214
 C         2.7406307165       -6.5977020000       -5.5102610043
 C         4.0963667071       -5.9523836524       -5.2838252388
 O         5.0111896982       -6.5019841022       -4.7309232831
 C         4.3441456145       -4.6143897698       -5.9735321940
 C         3.9495058326       -4.6552251275       -7.4957122954
 O         4.0719297204       -5.7018047447       -8.0797587167
 C         3.5817728969       -3.3332622756       -8.3012933960
 C         2.5080070909       -3.6565785437       -9.3913595895
 C         1.2282320011       -4.3512698678       -8.8528837462
 O         1.1683243362       -4.8067059058       -7.7314953438
 C         0.0147612890       -4.1757821003       -9.7370404061
 C        -0.4127868741       -2.7925116137       -9.7298557390
 O        -1.0841810644       -2.3305842762      -10.6171549970
 C        -0.0084569960       -2.0732741252       -8.4733297670
 C        -0.8593379585       -0.8804475287       -8.2054435905
 C        -2.2732932125       -1.2205600188       -7.8282960487
 O        -2.7592574756       -2.3188177526       -7.9328873542
 C        -3.0930346590        0.0847708229       -7.3577622969
 C        -3.6662029235        0.8280069308       -8.6917679032
 O        -3.5431282331        0.4258158370       -9.8105023199
 C        -4.2292163760        2.2109431930       -8.3948147400
 C        -3.9675445466        3.1812542371       -9.5162675900
 C        -5.1735380198        4.1818354936       -9.8310498968
 O        -6.3067791510        3.8398189524       -9.4077059567
 C        -4.9033901108        5.4890581859      -10.5958635681
 C        -6.2591135029        5.9495064653      -11.2415852418
 O        -6.4168530332        6.0652001978      -12.4651183939
 C        -7.3707639812        6.7594948412      -10.4223456272
 C        -8.7435052976        6.7809873089      -11.2509639529
 C        -8.9292175540        6.0489526170      -12.6100105423
 O        -8.9204027603        4.8724053842      -12.6203311804
 C        -9.2904971768        6.7335817690      -14.1199239286
 C        -8.6944347303        5.8388883561      -15.2191746707
 O        -9.2510530577        4.7834368524      -15.4460117575
 C        -7.3565962769        6.0791731159      -16.0356607028
 C        -7.0006478341        4.9106241678      -16.9008411009
 C        -6.9173521571        3.5902542863      -16.0067553990
 O        -6.3879226072        3.6923741399      -14.9512575429
 C        -7.2278703210        2.1004297689      -16.7466343818
 C        -8.1523198938        1.2971475709      -15.8448369626
 O        -9.1603058735        1.8068421769      -15.4249034847
 C        -7.9262196763       -0.2337539624      -15.6951878745
 C        -8.3794041203       -0.8066495154      -14.4017604411
 C        -9.9565712152       -0.8827452369      -14.2720324306
 O       -10.6026717123       -1.0551088402      -15.2896675399
 C       -10.6267231871       -0.9893676567      -12.8672233042
 C       -10.9116389122        0.5015051704      -12.3491256375
 O        -9.9230727109        1.2585589917      -12.1433541768
 C       -12.3620946000        0.9951351135      -12.1658765376
 C       -13.0281496291        1.1416508703      -13.5475768677
 C       -13.3021546745        2.5157459978      -14.1938869951
 O       -12.5973435559        3.4517827270      -13.8922366247
 C       -14.4217383407        2.6881144679      -15.3095196029
 C       -13.6786882487        2.1003933051      -16.6663984306
 O       -14.0246635929        0.9997593342      -16.9812986980
 C       -12.4874494508        2.7726654776      -17.2098510307
 C       -12.5449239014        2.7968759387      -18.7045680880
 C       -11.4230386970        3.6728313338      -19.5226340547
 O       -10.2637316621        3.6868084923      -19.1741910671
 C       -11.9816231570        4.2975878165      -20.8328556949
 C       -11.2787768236        3.5550203117      -22.0421026651
 O       -11.9595848702        3.1449385974      -22.9741410178
 C        -9.7947281109        3.6514996327      -22.1708307373
 C       -13.5169649265        4.0914550120      -21.0540289670
 C       -11.5355244526        5.7542386285      -20.8180188259
 C       -15.7814097725        1.9547303692      -15.1217447926
 C       -14.8883168737        4.1754775025      -15.3887835372
 C       -11.8766225807       -1.8797839129      -12.7432725718
 C        -9.6090084827       -1.5917708771      -11.7837972804
 C        -7.9910426225        2.1710385572      -18.1423088202
 C        -5.8513016816        1.4505165555      -16.9786892095
 C       -10.8372141199        6.7753540703      -14.2736685959
 C        -8.7346766739        8.1430724033      -14.1336223540
 C        -4.4967580870        6.4885695346       -9.4471111134
 C        -3.7999747176        5.4571222135      -11.6249943029
 C        -4.3356080276       -0.4963950261       -6.4799394652
 C        -2.2335183048        1.0348099182       -6.4413334448
 C         0.3834415550       -4.4902406387      -11.1937347964
 C        -1.1921017276       -5.0008755357       -9.1820802125
 C         3.6893358225       -3.5586183608       -5.0893481009
 C         5.7567908598       -4.2274564871       -6.1187081345
 C         0.3084849703       -8.4447062674       -1.8673360720
 C         1.5762345626       -6.7418851631       -0.4961860648
 C         7.5180882523      -10.9158493218        1.2136307703
 C         7.5737785629       -8.2991145163        1.0661362438
 C         9.6251023772      -10.2151282787       -5.5732227161
 C         7.4773383972       -8.7901274819       -6.0231624639
 H         8.1924187319      -12.5316872356       -5.7209186636
 H         7.0044115066      -13.1213556640       -4.5673728968
 H         8.6828328141      -12.6072495811       -3.9388495630
 H        10.2392864312       -7.7018801942       -3.2489611054
 H        10.3391425437       -9.4645793853       -3.0419843377
 H         8.4163554789       -7.6001148340       -1.4877673839
 H         9.9029563770       -8.1011446087       -0.8523848870
 H         4.9226532179      -10.1664589508        1.4320545230
 H         4.4897223143      -10.8945535549       -0.1726653221
 H         3.8577160489       -7.8940638908        0.3354068472
 H         2.7731839874       -9.1397535114        0.9138173412
 H         1.2100431553       -7.7887273753       -4.5558543467
 H         2.8050470296       -8.5731883992       -4.4872775803
 H         1.9808413942       -5.7540327300       -5.6016595565
 H         2.7505111538       -7.0451924459       -6.4708706546
 H         4.4846306876       -3.0473532530       -8.8078389412
 H         3.1572781821       -2.5542199993       -7.7088088227
 H         3.0206661269       -4.3159586498      -10.1154503146
 H         2.2618075452       -2.7054636122       -9.9171744074
 H         1.0359196978       -1.8663066808       -8.5220623808
 H        -0.2468736755       -2.7039126330       -7.6450695794
 H        -0.7653526614       -0.1290856431       -8.9576853884
 H        -0.4583439017       -0.3495048320       -7.3641475016
 H        -3.9019582181        2.6455453303       -7.4783845840
 H        -5.4044042228        2.2094466143       -8.2294828117
 H        -3.6570981388        2.7007504434      -10.4589554368
 H        -3.1500680924        3.9035084643       -9.2956662491
 H        -6.9850105137        7.8309603310      -10.2200041625
 H        -7.5161777228        6.2794838991       -9.4856611855
 H        -8.9528236939        7.8186799020      -11.4005599709
 H        -9.5345204955        6.4038407277      -10.5586572397
 H        -6.5817082044        6.2451070450      -15.2752604867
 H        -7.3896243609        6.9942753522      -16.6797010314
 H        -6.0360768509        5.1241517991      -17.5169026637
 H        -7.8138727051        4.8245314763      -17.5682565586
 H        -6.7647588313       -0.4590206431      -15.7567301533
 H        -8.3133458015       -0.6303696815      -16.5969107069
 H        -7.7639258743       -0.3167152298      -13.7036463931
 H        -8.1413132524       -1.8421951977      -14.4523032057
 H       -12.4169712081        1.9238522075      -11.6374906976
 H       -13.0633189309        0.2769143607      -11.7453763501
 H       -13.9838260108        0.6580925321      -13.3997281724
 H       -12.5629105306        0.5874334393      -14.4177433591
 H       -11.5519311572        2.2983418427      -16.8802332403
 H       -12.4308304195        3.8240585444      -16.8746989285
 H       -13.6112927854        3.0564098418      -19.0323745385
 H       -12.3897919729        1.7798733219      -19.0819205197
 H        -9.5010341046        4.4867736567      -22.9067699825
 H        -9.2556706155        2.7663947502      -22.4144874556
 H        -9.3248815820        4.0251513274      -21.2904962879
 H       -14.0562157505        4.7215105242      -20.3451012466
 H       -13.5936679328        3.0166118048      -20.9387898993
 H       -13.6937698621        4.3282994497      -22.0881853251
 H       -12.2642513111        6.1869772571      -21.4252460310
 H       -10.5193560993        5.9096377605      -21.2444804953
 H       -11.4416596000        6.3123433353      -19.8962642762
 H       -16.3258813200        2.1775750380      -15.9850877167
 H       -16.1382715285        2.2705684427      -14.1257685713
 H       -15.4794313511        0.9460291613      -15.0863208371
 H       -14.0852263076        4.8674090308      -15.5178826397
 H       -15.4427053983        4.4859891355      -14.5127132071
 H       -15.5901987075        4.3901529927      -16.2321913441
 H       -12.6221615097       -1.7805003759      -13.6052203575
 H       -12.4661012722       -1.8040659060      -11.7941611005
 H       -11.6287888057       -2.9217309489      -12.7815560169
 H        -9.9588814182       -1.6060769353      -10.7657565666
 H        -8.7679685602       -0.9975356733      -11.6703716098
 H        -9.1716254144       -2.5945187610      -11.9505771407
 H        -8.0023680131        1.1447048101      -18.4735210512
 H        -7.4076433888        2.7618222415      -18.8273355040
 H        -8.9912198693        2.5161455400      -18.1227436471
 H        -5.2601815974        1.9974035916      -17.7255417721
 H        -5.9160412087        0.3818397930      -17.3141077593
 H        -5.2512444108        1.4906286142      -16.0899624828
 H       -11.1860352439        5.7062130160      -14.4146986063
 H       -11.2469738331        7.4428310028      -14.9688791324
 H       -11.2882981934        7.0360319475      -13.2958585094
 H        -7.6720963833        7.9291969084      -13.9480899439
 H        -9.2175187102        8.7159677700      -13.3418435746
 H        -8.9192636370        8.6420673592      -15.0426228074
 H        -5.1285513091        6.4801864324       -8.5998033177
 H        -4.2755995101        7.5279806130       -9.8623793785
 H        -3.4859667555        6.2072285197       -9.0994073795
 H        -4.0398015496        4.7932689671      -12.4498460945
 H        -2.8512625395        5.1916654653      -11.0659837871
 H        -3.6376936990        6.4472838082      -12.0263437825
 H        -4.2405285007       -1.6087717923       -6.2881819595
 H        -5.3890084901       -0.3924415702       -6.8712345622
 H        -4.3361593281       -0.1019521281       -5.4845597387
 H        -1.7659188209        0.3310002447       -5.6386494283
 H        -2.8478649132        1.8166449626       -5.9479632470
 H        -1.3123503912        1.5572414992       -6.8857075862
 H        -0.5407205357       -4.6247823794      -11.7865312533
 H         1.1176666436       -5.2480616076      -11.2488467365
 H         1.0298905157       -3.6343099674      -11.5066640706
 H        -0.9064558484       -6.0516206608       -9.0071797360
 H        -1.8864108326       -4.9964993707       -9.9262799638
 H        -1.6799344313       -4.4039336444       -8.3698099723
 H         4.0284024435       -3.8849156494       -4.0899368000
 H         2.6232837661       -3.6483665727       -5.1458916644
 H         4.0737222942       -2.5266462099       -5.3799673493
 H         5.7179819483       -3.2564358034       -6.5366992705
 H         6.3079115270       -4.9686398993       -6.6506516677
 H         6.1972188904       -4.1988857187       -5.1362615395
 H         0.5068149511       -9.4379074393       -2.3340587527
 H        -0.2592183913       -7.7938374790       -2.5684202843
 H        -0.2113793199       -8.5023470735       -0.9691208455
 H         2.5477248262       -6.2635621249       -0.2730184083
 H         1.1242819203       -7.3349938735        0.3585742205
 H         0.8539643830       -5.9213468755       -0.6786955496
 H         8.4749373159      -10.7409210557        1.7256237422
 H         7.6578602677      -11.9250761573        0.8562094317
 H         6.8680745620      -10.9951154983        2.0498833854
 H         6.9880872292       -8.3958335885        2.0010918316
 H         7.1657589637       -7.4889222927        0.4224017749
 H         8.6549698923       -8.2568699027        1.3428409766
 H         9.4946567714      -10.5497829962       -6.6022229863
 H         9.9722451495      -11.0052861280       -4.9407486745
 H        10.4580745754       -9.5465548552       -5.5878795196
 H         7.7380077980       -7.7379511971       -5.9542042321
 H         6.4719690006       -8.7686539819       -5.6075416923
 H         7.5309984036       -9.2987182850       -7.0217641955
 Na        5.1881651454       -8.4714103816       -3.6092398540
 Na      -10.0986374693        3.3354569206      -13.7053577486
