232

 C         7.8432738237      -12.4022691918       -4.6894601067
 C         7.3499227442      -10.9286822528       -4.5315095764
 O         6.2428326990      -10.7969134716       -4.1220664094
 C         8.1979977950       -9.7449257013       -4.9616638928
 C         8.4587127996       -8.5432346357       -3.8865301477
 O         7.6055225418       -7.6916046103       -3.6984058032
 C         9.6562318801       -8.5392718206       -2.8866287770
 C         9.2287200946       -8.4494133815       -1.3983564161
 C         8.5257532156       -9.7700559546       -0.9681832265
 O         8.8585310830      -10.8395440632       -1.4222886731
 C         7.5321961251       -9.6612023494        0.2188310327
 C         6.0477149010       -9.5997089596       -0.4725896175
 O         6.0667839745       -9.2449072423       -1.6249264380
 C         4.6901827023       -9.9493430057        0.3173056621
 C         3.6241413660       -8.8574682454        0.2482579211
 C         2.9004057700       -8.9072973768       -1.1232507937
 O         3.1754387480       -9.7504991614       -1.9915707197
 C         1.8819000587       -7.7705599562       -1.5599997236
 C         2.4026357977       -7.0393856765       -2.8570345741
 O         3.0448034459       -5.9900997197       -2.7419938298
 C         2.2447837798       -7.5987282208       -4.2566251711
 C         2.6266686541       -6.6718156811       -5.3803789900
 C         4.0384128492       -5.9672656634       -5.2652721347
 O         4.9540638312       -6.4739758893       -4.6185365685
 C         4.2829316233       -4.5045578754       -5.9476817380
 C         3.7960699943       -4.6200805657       -7.4715261164
 O         4.0742178503       -5.6804788193       -8.0615700410
 C         3.5607560865       -3.3807772275       -8.2685716818
 C         2.5151505351       -3.6570752000       -9.4579417642
 C         1.2970069776       -4.3712546484       -8.9147588874
 O         1.3142905332       -5.0137682170       -7.8680239716
 C         0.0525072944       -4.2512065163       -9.9144978855
 C        -0.4846686352       -2.7117649208       -9.8340998017
 O        -1.1108827659       -2.1984421737      -10.7159421891
 C         0.0083007694       -1.9545556849       -8.5070374142
 C        -0.8660183431       -0.8202073496       -8.0645026302
 C        -2.3259018862       -1.1481418146       -7.8053359782
 O        -2.8570807842       -2.2570425410       -7.8827730694
 C        -3.1223843722        0.0058657534       -7.2911381647
 C        -3.6320588898        0.8270725368       -8.5787479791
 O        -3.6676877183        0.2987181244       -9.6425672873
 C        -4.2597035771        2.1675838295       -8.3422915190
 C        -4.0058488333        3.1658265069       -9.4264033786
 C        -5.1500510805        4.2152260279       -9.6793714614
 O        -6.2073770707        4.0452660895       -9.1458241989
 C        -4.9347863436        5.5711540478      -10.4904831976
 C        -6.2353965440        6.1382121820      -11.3202220504
 O        -6.2456254235        5.9821628518      -12.4910782843
 C        -7.4404488238        6.8724097279      -10.6250566611
 C        -8.8058875586        6.9032474188      -11.3837992797
 C        -8.8534544447        6.0988373220      -12.6984837175
 O        -8.9144600169        4.8559534158      -12.6536702621
 C        -9.1762711601        6.8156900384      -13.9613680000
 C        -8.6834307469        5.8449899300      -15.0744449148
 O        -9.3372895129        4.8937375473      -15.4649240793
 C        -7.3392637291        6.1367693108      -15.9208797807
 C        -6.9296007143        4.9209575107      -16.8146823766
 C        -6.8473093786        3.5357511912      -16.1223000062
 O        -6.4048980557        3.4464187464      -14.9673234016
 C        -7.2527420058        2.2140258192      -16.8228316759
 C        -8.3138691674        1.3009920359      -15.8911000656
 O        -9.2913159758        1.7368022954      -15.3005388823
 C        -8.0308926406       -0.2647925302      -15.7438675169
 C        -8.5042776731       -0.8407639075      -14.3618234406
 C       -10.0170932634       -1.1566488596      -14.2692074076
 O       -10.7723969529       -1.1591321159      -15.1869089421
 C       -10.7043218304       -1.1284326576      -12.7300032502
 C       -10.9128094801        0.3751725708      -12.3849227957
 O        -9.9451519318        1.1162796630      -12.2664444796
 C       -12.2712424559        1.0135289295      -12.1973066255
 C       -13.0045961715        1.0549318024      -13.6194337945
 C       -13.3383759576        2.5666253904      -14.1642011948
 O       -12.6085155329        3.5363732387      -13.8668754231
 C       -14.3715858889        2.7034976553      -15.2884197452
 C       -13.6854514548        2.0666114353      -16.5886691581
 O       -14.0472649110        0.9870812930      -16.9975990198
 C       -12.4874925410        2.8722239659      -17.1986757179
 C       -12.6005965508        2.7515554408      -18.7292739336
 C       -11.5568572423        3.5558551930      -19.6348924652
 O       -10.4460391660        3.8342823862      -19.2109677018
 C       -12.0642060109        4.2095936307      -20.9553532967
 C       -11.2916162582        3.5986669328      -22.2239919212
 O       -11.9212917424        3.0324332227      -23.0653573470
 C        -9.7564769901        3.6315509315      -22.2022767113
 C       -13.5874102060        4.2543405448      -21.1251979831
 C       -11.5678589460        5.7868717037      -20.8117859287
 C       -15.7859927452        1.9095214813      -15.1141247492
 C       -14.7127594066        4.2565882460      -15.4201656910
 C       -11.9113626108       -2.0347163276      -12.8059745602
 C        -9.6678456053       -1.7271731330      -11.7787782385
 C        -7.9657936796        2.1752025650      -18.1807216206
 C        -5.8591052366        1.5425742963      -17.0281175215
 C       -10.7355574049        6.8002296564      -14.1432083772
 C        -8.5294341150        8.3416219556      -14.0502850753
 C        -4.5737140979        6.6405917729       -9.4491344912
 C        -3.8545002196        5.3624591167      -11.5535787243
 C        -4.4613846066       -0.4506020397       -6.7039977330
 C        -2.2961625654        0.9146062792       -6.4732740446
 C         0.4596389207       -4.5313673698      -11.3608171750
 C        -1.2344608798       -5.0101064114       -9.2407471863
 C         3.4748612342       -3.4574534546       -5.0526120245
 C         5.8789977105       -4.2569785922       -5.9996123201
 C         0.4843534804       -8.4043451957       -1.9460515426
 C         1.6438050485       -6.7700297597       -0.4173107542
 C         7.5554208403      -10.8530398923        1.0995685957
 C         7.8488501129       -8.4360260833        1.1307398789
 C         9.5700639948      -10.2062501395       -5.5203495857
 C         7.5215436701       -8.9215061921       -6.1246078052
 H         8.0169322269      -12.6080488936       -5.7627399196
 H         7.1219882277      -13.0477052022       -4.3416743009
 H         8.7573321696      -12.5220170898       -4.0924193560
 H        10.2870553260       -7.7036239113       -3.1916090140
 H        10.3356024323       -9.4177228813       -2.9838670024
 H         8.5076727742       -7.6378454163       -1.2175631727
 H        10.0284212224       -8.2464638293       -0.6878144993
 H         4.9583863356      -10.1093535922        1.3279419302
 H         4.4126225144      -10.9550933568       -0.0873984905
 H         3.9004111331       -7.8788705533        0.6273949271
 H         2.8590710526       -9.1677148649        0.8843960806
 H         1.1440796975       -7.8473315924       -4.4060782511
 H         2.8417102592       -8.4843448963       -4.4569573118
 H         1.9278458548       -5.8496422349       -5.5637734761
 H         2.5326131844       -7.3504179828       -6.2480182303
 H         4.5125722854       -3.1019670148       -8.5747045244
 H         3.1119036162       -2.6014125922       -7.5804294738
 H         2.9640814234       -4.4598649126      -10.0899440400
 H         2.2763751923       -2.7873599225      -10.0896915973
 H         0.9810628597       -1.5975958569       -8.7659954498
 H         0.0688759497       -2.6424518834       -7.7254249814
 H        -0.8841270159       -0.1381283690       -8.8117426660
 H        -0.4057799127       -0.1481170115       -7.3248172165
 H        -4.1726232308        2.6084284504       -7.3424309610
 H        -5.3434359351        2.0074319604       -8.4072564475
 H        -3.8667664936        2.6439953934      -10.3696180703
 H        -3.0722508668        3.7892485824       -9.3389360572
 H        -7.0077584403        7.9108035007      -10.3561480641
 H        -7.5394486825        6.3206953474       -9.6071786264
 H        -9.0771206211        7.9195720795      -11.5500467439
 H        -9.5634258915        6.4606704269      -10.6838143921
 H        -6.5114300637        6.3221989510      -15.1307615450
 H        -7.3863853715        7.0059831950      -16.5556535722
 H        -6.0017894146        5.1702404051      -17.2282492731
 H        -7.7050309577        4.8486940766      -17.6450324136
 H        -7.0253105517       -0.5669978053      -15.9953399338
 H        -8.6433637453       -0.5259067068      -16.6573775745
 H        -8.2518801725        0.0088946511      -13.6755488878
 H        -7.9158546885       -1.7484113526      -14.0811477104
 H       -12.0334197231        2.0418990040      -11.8262174203
 H       -13.0226015548        0.5190016480      -11.5274628541
 H       -13.8267922497        0.3407789381      -13.6977094708
 H       -12.2452379349        0.7486626380      -14.4575044511
 H       -11.4682313392        2.5546882561      -16.9176104452
 H       -12.5351326060        3.9238795523      -16.9909951606
 H       -13.6324614957        3.0069578831      -19.1039207243
 H       -12.4679215629        1.7044307869      -19.0471534876
 H        -9.3830690468        4.5210990139      -22.7028066372
 H        -9.4189264276        2.7499050962      -22.8117367021
 H        -9.1690122734        3.6259497671      -21.3101122364
 H       -13.9759187674        4.8674835133      -20.2401923583
 H       -13.9148892491        3.2255220651      -21.2382823914
 H       -13.6714351931        4.7926428480      -22.1169652723
 H       -12.1435416339        6.4807327465      -21.3434149902
 H       -10.5221651806        5.8964254370      -21.0501657438
 H       -11.5825540587        6.1189783606      -19.7506281321
 H       -16.2617434313        2.1197294828      -16.0302262626
 H       -16.1998280002        2.3221480766      -14.1702443552
 H       -15.5993574901        0.8793552727      -15.0130132325
 H       -13.8494303029        4.8635042190      -15.3855987422
 H       -15.3700921197        4.5843983261      -14.5965486443
 H       -15.3143969175        4.5568614133      -16.2858860882
 H       -12.5184012637       -1.8576732899      -13.6812997441
 H       -12.5755295936       -2.0183924284      -11.9828184405
 H       -11.6346238851       -3.1004925648      -12.9124860977
 H       -10.0930270819       -2.1164706098      -10.8608004120
 H        -9.0071851798       -0.9078624972      -11.3697546871
 H        -8.9910681885       -2.4263494247      -12.1029441473
 H        -8.0028618199        1.0733794766      -18.4766528159
 H        -7.4460810516        2.6947147665      -18.8952502852
 H        -9.0191299259        2.6026968859      -18.1763601098
 H        -5.1695216501        2.1757681804      -17.5599769596
 H        -5.8663418887        0.5857819086      -17.4748696492
 H        -5.4073914706        1.4554878454      -16.0029835677
 H       -11.1667813698        5.8411791662      -13.9057141418
 H       -10.9485596750        7.0613490264      -15.1583167403
 H       -11.2815291668        7.5288111669      -13.5342333943
 H        -7.4904804665        8.2069219425      -13.7856290342
 H        -9.0836779652        9.0101818391      -13.4187702528
 H        -8.7414699079        8.7547120171      -15.0351200998
 H        -5.1236993809        6.7688490052       -8.5147970540
 H        -4.4544403643        7.5619610971       -9.9757605079
 H        -3.5041874589        6.4510680810       -9.2047681054
 H        -4.1618088823        4.5026089708      -12.2307607788
 H        -2.9502276288        5.1931786007      -10.9984144817
 H        -3.7122081021        6.2019921944      -12.2613596722
 H        -4.5505819640       -1.4311677980       -6.3156330995
 H        -5.3191890383       -0.3253613713       -7.4282894632
 H        -4.6764318674        0.1673454535       -5.8672777938
 H        -1.5815643738        0.3126132967       -5.8569441070
 H        -2.9583354141        1.5479187558       -5.8231735050
 H        -1.6448075848        1.6320979629       -7.0232641556
 H        -0.3468624184       -4.8672596812      -11.9038924119
 H         1.3825669976       -5.1145416570      -11.4119519890
 H         0.8675938389       -3.5900858119      -11.7256535675
 H        -1.0487992191       -6.0553288936       -8.9609531443
 H        -2.1680709043       -4.9732241602       -9.8651156802
 H        -1.4300692878       -4.2636520040       -8.4394534515
 H         3.9445136968       -3.5822817047       -4.0561055614
 H         2.4493189719       -3.7858982359       -4.9971197369
 H         3.6134200246       -2.4338044791       -5.4499010573
 H         6.1376306027       -3.3874487211       -6.5123200556
 H         6.2548899995       -5.1453592762       -6.4166939567
 H         6.2379072807       -4.2879089852       -4.9796265585
 H         0.6588839224       -9.2174760551       -2.6426783978
 H        -0.0657865172       -7.5991143189       -2.4206382288
 H        -0.1385185653       -8.7196313460       -0.9759230301
 H         2.6025332571       -6.1759317344       -0.2850465237
 H         1.3624637395       -7.3440160923        0.4219134025
 H         0.7645477094       -6.0278058036       -0.5266855300
 H         8.5085929162      -10.9743979009        1.5191499883
 H         7.3932474812      -11.7902164649        0.6436116324
 H         6.9755567229      -10.7922534871        2.0791142799
 H         6.9112288943       -8.2513692338        1.7134431024
 H         8.2196954633       -7.6219095645        0.5120932198
 H         8.5611527874       -8.8227806601        1.8527031451
 H         9.4217231179      -10.4783774316       -6.5571786620
 H        10.0718844107      -11.0273469329       -4.9870432396
 H        10.2859753219       -9.3909805216       -5.5067016095
 H         8.1115602714       -7.9576844245       -6.2059412734
 H         6.5671223872       -8.5417501343       -5.7386339048
 H         7.4937794965       -9.5331677335       -7.0142136505
 Na        5.3053011826       -8.6186543916       -3.7376606421
 Na      -10.1524171731        3.4300830827      -13.6037546978
