232

 C         7.9167927849      -12.2503396308       -4.6131710323
 C         7.4167702416      -10.8310820495       -4.5876226159
 O         6.2106537366      -10.6503006488       -4.2932848479
 C         8.3634282266       -9.7672708839       -5.1570807546
 C         8.5096283327       -8.5431600315       -4.0108146221
 O         7.6245230498       -7.7511386434       -3.8607649896
 C         9.6420050880       -8.7101701452       -2.9899114580
 C         9.2990354982       -8.5258998802       -1.5353789269
 C         8.7360810711       -9.8512130115       -0.8723253217
 O         8.8743086923      -10.9210823991       -1.3847876929
 C         7.6581813012       -9.7354453351        0.2468926879
 C         6.3224312370       -9.4311012272       -0.4390684853
 O         6.2619924035       -8.8531072262       -1.5015427916
 C         5.0200647392       -9.8001686025        0.3066887679
 C         3.8785185894       -8.7890086195        0.1255625171
 C         3.0947339872       -8.8670082630       -1.2355387526
 O         3.1973375347       -9.7968732901       -1.9945518356
 C         2.0136198301       -7.7346982310       -1.4696475798
 C         2.5751995439       -6.9178216744       -2.7384111578
 O         3.0107648002       -5.8141991708       -2.6214556212
 C         2.2704457892       -7.5686278114       -4.0584438336
 C         2.5358454610       -6.5538064856       -5.2982791649
 C         3.9778338896       -5.9938777252       -5.1587721516
 O         4.8327970487       -6.6725344592       -4.6338208945
 C         4.1840026782       -4.5982728271       -5.8589420229
 C         3.8265235512       -4.7761001574       -7.3681662730
 O         4.0744424284       -5.7734692188       -7.9738551212
 C         3.3657371654       -3.4426329297       -8.1143320811
 C         2.8179870948       -3.8080701023       -9.4739703838
 C         1.3262109914       -4.4369933901       -9.2053566664
 O         1.2516087497       -5.2483351294       -8.3111890308
 C         0.0680442067       -4.2157879479      -10.0293227249
 C        -0.3464860393       -2.6344569611       -9.9496713759
 O        -0.9700617844       -2.1194848415      -10.8241038691
 C         0.0340294872       -1.8402276304       -8.5380722855
 C        -0.9913383851       -0.6597381493       -8.2076661744
 C        -2.3363643524       -1.1177662204       -7.7236685328
 O        -2.7353601837       -2.2384576395       -7.7680662543
 C        -3.4036729177        0.0599082298       -7.2586232937
 C        -3.7827703049        0.8590130650       -8.5253289553
 O        -3.7809655677        0.3670823966       -9.6339590890
 C        -4.4710754942        2.2644287021       -8.3552315010
 C        -4.2858478674        3.3542666686       -9.5250851298
 C        -5.3009500298        4.4886834111       -9.4884239458
 O        -6.2243293174        4.5804637989       -8.6433657990
 C        -4.9595798526        5.6222506180      -10.4281939361
 C        -6.1786142873        6.0578103767      -11.3137666490
 O        -6.2250411636        5.9522891158      -12.5480193822
 C        -7.2552981085        6.8626562890      -10.5310832197
 C        -8.4713562635        7.0718104209      -11.3371565473
 C        -8.7348577804        6.1520801086      -12.4998894799
 O        -8.8553440122        4.9821147733      -12.4355946960
 C        -9.0926734504        6.9306867526      -13.8781540315
 C        -8.6353924866        5.8344057256      -15.0826650726
 O        -9.4168127003        4.9557625898      -15.4009286611
 C        -7.2189967838        5.8075555647      -15.6560396994
 C        -7.0535895107        4.6929178712      -16.7515345931
 C        -6.9771445185        3.4269026226      -15.9497455435
 O        -6.5298541817        3.3398974545      -14.8509692994
 C        -7.4200194048        2.1694723317      -16.7978493042
 C        -8.4185596738        1.3166761479      -15.8967698878
 O        -9.1556324232        1.9858747619      -15.2119049366
 C        -8.4026788128       -0.2404484112      -15.8250219726
 C        -8.6342306877       -0.7645763062      -14.3522601428
 C       -10.1536291916       -1.2515685765      -14.1847601662
 O       -10.8956997877       -1.3896499671      -15.1267056733
 C       -10.7388548544       -1.2542174888      -12.6976892953
 C       -10.8708278207        0.2468557824      -12.5349094670
 O        -9.8926450317        1.0175026847      -12.6183015987
 C       -12.2432815093        0.8017015910      -12.4621746190
 C       -12.9346343491        0.9791237616      -13.8094198681
 C       -13.1639980531        2.4704775546      -14.1787962891
 O       -12.5225118937        3.3678202800      -13.6961239437
 C       -14.2265311834        2.8615693355      -15.3647802538
 C       -13.6204364386        2.1560484907      -16.7225275229
 O       -13.9920069589        1.0506687075      -16.9617232005
 C       -12.6395993056        2.9783982886      -17.4772035915
 C       -12.7911530143        2.6653993412      -18.9792716881
 C       -11.8098360119        3.6409188242      -19.7167063679
 O       -10.7556822108        3.8349540960      -19.1496134862
 C       -12.1381332898        4.3857850358      -21.0302823223
 C       -11.3494095013        3.5307843596      -22.2087145199
 O       -11.9917803471        2.9460696708      -23.0693265391
 C        -9.8763196772        3.6400266163      -22.2554644777
 C       -13.6726541124        4.4049533950      -21.5030816312
 C       -11.5584129140        5.7701832183      -20.9631898221
 C       -15.5738238815        2.0442883521      -14.9468996514
 C       -14.5533810270        4.3134281183      -15.5412443013
 C       -12.0522859011       -2.0825377331      -12.7329547350
 C        -9.7860569947       -1.8862086803      -11.7692470286
 C        -8.0911070054        2.4655743322      -18.2307238721
 C        -6.1132053807        1.3276028609      -16.9863070318
 C       -10.6262653180        7.2358533013      -13.9196534266
 C        -8.1810379229        8.1713031065      -14.1246202665
 C        -4.5869470164        6.8871649646       -9.6167050068
 C        -3.8183877127        5.3327330985      -11.3451727464
 C        -4.7179359365       -0.4506315492       -6.6320764790
 C        -2.7839863132        0.9493036978       -6.1009089106
 C         0.3087893134       -4.6942633572      -11.5445920095
 C        -1.0089423777       -5.1140766646       -9.5097588840
 C         3.2973103750       -3.4353452460       -5.1638105715
 C         5.6554320976       -4.2441055506       -5.5688918379
 C         0.7168457262       -8.5631044275       -1.7401558193
 C         1.8307859754       -6.7330839517       -0.3518804781
 C         7.5916306163      -11.1397398581        0.9185915489
 C         7.9174347349       -8.5647816776        1.4005936519
 C         9.7614193467      -10.2038439383       -5.5008553310
 C         7.5686341534       -9.2822244167       -6.3637054102
 H         7.9767759198      -12.5339812580       -5.6324335588
 H         7.1674486761      -12.8983998453       -4.0469180896
 H         8.8456388884      -12.3407737674       -4.0877580859
 H        10.5081457793       -8.0400022411       -3.2743790807
 H        10.0679539501       -9.7431964328       -2.9183078781
 H         8.6974061522       -7.6357275170       -1.2117244773
 H        10.2857760253       -8.3795928251       -0.9848600425
 H         5.2134713840      -10.0644895968        1.3713223670
 H         4.7962685515      -10.7392037388       -0.1229055847
 H         4.1031720124       -7.7357422945        0.3222274585
 H         3.0973052201       -8.9612293355        0.9561264689
 H         1.2720204069       -7.9404588069       -4.0182047133
 H         3.0437863638       -8.3773850487       -4.0849610641
 H         1.8719914590       -5.6674743528       -5.3099239671
 H         2.4109669831       -7.0606467041       -6.2511525717
 H         4.3565368724       -2.8753001886       -8.4163035892
 H         2.7233387994       -2.7326480578       -7.5867976076
 H         3.4378748269       -4.5735880138       -9.9368683066
 H         2.8662909815       -2.8986407663      -10.0719328978
 H         1.0388036097       -1.3304928168       -8.6440848795
 H         0.0596116678       -2.5684927314       -7.6462751970
 H        -1.1005912402        0.1565476368       -9.0580960418
 H        -0.5079561849        0.0597595313       -7.5394854051
 H        -4.1600676558        2.7622421364       -7.4680873431
 H        -5.5199881047        2.0488638329       -8.1217154371
 H        -4.2979078152        2.9341712720      -10.5527633175
 H        -3.3329617939        3.8215851597       -9.4687149670
 H        -6.7720362965        7.6711251916      -10.0877384378
 H        -7.5161558022        6.2260707869       -9.7596727829
 H        -8.5611840716        8.1123328608      -11.7440157149
 H        -9.2862072934        6.9434943342      -10.6447297900
 H        -6.5746762555        5.7184790318      -14.8413664236
 H        -7.1026292014        6.8229778977      -16.1081069267
 H        -6.0198473765        4.8622795997      -17.2378072197
 H        -7.8395544019        4.7351192671      -17.4316369945
 H        -7.3500048915       -0.5463909471      -16.1330194522
 H        -9.1082386802       -0.6953973037      -16.4991275258
 H        -8.4587121134        0.0292561291      -13.5980810717
 H        -7.9226248728       -1.6056976948      -14.2505026183
 H       -12.0943177557        1.7655234044      -11.9169597137
 H       -12.8662371964        0.1876398547      -11.8042076563
 H       -13.9516236776        0.6005284376      -13.9089164466
 H       -12.3424872420        0.4496022094      -14.4862387279
 H       -11.6358370724        2.6273720729      -17.2518935122
 H       -12.6559974924        4.0829540039      -17.3131122817
 H       -13.7957107536        2.6761254111      -19.3390759027
 H       -12.4755997632        1.6500680764      -19.1257527012
 H        -9.4683191465        4.6681366210      -22.1082946699
 H        -9.5026511718        3.2403096305      -23.1478669775
 H        -9.3642135577        3.0797541061      -21.4741278854
 H       -14.2053946460        4.5540617649      -20.6101907164
 H       -13.7814452616        3.3859143875      -21.8959731944
 H       -13.8507802539        5.0962804925      -22.2827696774
 H       -11.3384799563        6.2824290057      -21.9624207322
 H       -10.5818073001        5.8266219687      -20.3699864151
 H       -12.3134966558        6.4280499333      -20.4835032834
 H       -16.3375868825        2.2214967745      -15.7284893868
 H       -15.7417622834        2.4193989988      -13.9388490179
 H       -15.3401004706        0.9570712934      -14.8863513628
 H       -13.6261228923        4.9039439312      -15.3687069612
 H       -15.2943946002        4.6787780727      -14.8572363564
 H       -15.0634911618        4.5648554038      -16.4654696190
 H       -12.9060383138       -1.8937733831      -13.3837116713
 H       -12.4685801822       -2.0488038560      -11.7183300621
 H       -11.8627332946       -3.0901424940      -12.8887203820
 H       -10.3031647959       -2.4577095890      -10.9744910770
 H        -9.0652804068       -1.3062436127      -11.2711099692
 H        -9.0843458853       -2.6636913252      -12.2767277441
 H        -8.4271669105        1.5882387347      -18.7750580867
 H        -7.3878340058        3.0654539886      -18.9326215225
 H        -8.9051379009        3.1459812979      -18.0441041710
 H        -5.3110711069        1.9767535574      -17.3358951255
 H        -6.1824398505        0.4619813262      -17.6894259555
 H        -5.8056135349        0.9735143870      -16.0527352036
 H       -11.2459193486        6.5482490935      -13.3007587397
 H       -11.0000946241        7.0998693854      -14.9353703878
 H       -10.9154396131        8.2308177576      -13.6259615558
 H        -7.1526767501        7.8903142650      -13.8339014225
 H        -8.5654587714        9.1005229689      -13.6919717456
 H        -8.3899485833        8.3447031219      -15.1592560284
 H        -5.3917818659        7.1419715482       -8.9434606203
 H        -4.4024335728        7.8143253439      -10.2244482092
 H        -3.7351465790        6.6851697721       -9.0063367228
 H        -3.9732635191        4.5999746562      -12.0663316919
 H        -2.8942945668        5.2618618090      -10.7297525990
 H        -3.7714603957        6.1961202204      -11.9782840857
 H        -4.4809033383       -0.7109979250       -5.5787222371
 H        -5.1900815959       -1.2850598051       -7.0783976050
 H        -5.4143169976        0.3391722755       -6.4287329903
 H        -2.4817465752        0.2993710437       -5.3284583918
 H        -3.5646249655        1.5191836172       -5.7826121489
 H        -2.0232960114        1.6255080260       -6.3120157881
 H        -0.7092665734       -4.7336376458      -12.0174306547
 H         0.8029603110       -5.6226606159      -11.5026963659
 H         0.9584878093       -3.9963520365      -12.0668033989
 H        -0.6483474886       -6.1215353692       -9.8069003303
 H        -1.8872218018       -4.9396099043      -10.0232008911
 H        -1.1951127498       -4.9864270499       -8.4390913923
 H         3.4984107571       -3.3441753349       -4.1250491644
 H         2.3034301193       -3.7732158701       -5.3668376070
 H         3.5911394869       -2.4863966971       -5.5972693122
 H         5.8840555043       -3.2453111949       -6.0300557779
 H         6.2760086280       -5.0577371922       -6.0277219511
 H         5.7322063869       -4.2803959648       -4.4729607370
 H         0.8461127665       -9.3829208811       -2.4647516407
 H        -0.1045998858       -7.8794758772       -1.9908409928
 H         0.5165083474       -8.9384129569       -0.8400003066
 H         2.6052090709       -6.0298252747       -0.2825491021
 H         1.4804776247       -7.1005689092        0.6697438901
 H         0.9901151218       -6.2581290634       -0.7237648434
 H         8.4928738866      -11.7798811564        1.1019880711
 H         6.9435140194      -11.7567873628        0.2616711030
 H         7.2240966556      -11.1253435966        1.8869062411
 H         6.9608447007       -8.2385888968        1.6905139339
 H         8.6911067839       -7.9160231123        1.0015131132
 H         8.2703805178       -9.1054861753        2.2856725421
 H         9.7944401011      -11.0909569049       -6.1785783687
 H        10.3070934441      -10.4558066657       -4.5897382030
 H        10.2975211797       -9.3357218254       -5.9460995072
 H         8.2256993150       -8.8795815350       -7.0664652540
 H         6.8602213260       -8.5365220163       -6.0816669701
 H         7.1799720270      -10.2060053136       -6.7976736909
 Na        5.4335451773       -8.6528647461       -3.8052631861
 Na      -10.2342496455        3.1999661061      -13.6737609762
