232

 C         8.0437297463      -12.3914035959       -4.5038350198
 C         7.4932573774      -10.9062248802       -4.6119748013
 O         6.3482710641      -10.6041544224       -4.3625625564
 C         8.4500909520       -9.7609065130       -5.1885109948
 C         8.4468692295       -8.7082902036       -4.0124311416
 O         7.6059580459       -7.8297817466       -3.9232829924
 C         9.6652024407       -8.8519245489       -3.0185997627
 C         9.2653724567       -8.5271136870       -1.5428655136
 C         8.7169827772       -9.8401190896       -0.9382804401
 O         9.0180972693      -10.8680907310       -1.4590585324
 C         7.6426044035       -9.8068302776        0.2269999440
 C         6.3459035027       -9.3014138592       -0.4279191570
 O         6.4445794938       -8.6050195344       -1.4141975607
 C         5.0383159923       -9.7533023834        0.2999126391
 C         4.0409908298       -8.7268540999        0.0617069254
 C         3.2025500561       -8.8267599628       -1.2022608884
 O         3.4221081078       -9.7285472322       -2.0389618065
 C         2.0440827798       -7.7263158632       -1.4355332867
 C         2.4378822811       -6.9191965773       -2.7285914867
 O         2.9485919634       -5.8180857397       -2.5360232813
 C         2.2375404356       -7.5804924705       -4.0952134577
 C         2.4524681372       -6.5495020495       -5.2189033797
 C         3.8596276305       -5.9975241007       -5.1733842594
 O         4.8392254196       -6.6321748888       -4.8060809776
 C         4.1496846467       -4.6159715268       -5.7460575832
 C         3.9291633615       -4.7767564547       -7.3047129401
 O         4.1321486105       -5.8433932564       -7.8929987479
 C         3.4072884561       -3.5690773921       -8.1138914312
 C         2.7303063912       -3.8736578505       -9.5068285009
 C         1.3691218004       -4.5965715880       -9.2946022559
 O         1.2902591857       -5.3500083863       -8.3442654822
 C         0.1060324404       -4.2380186148      -10.1189757621
 C        -0.3882567608       -2.6665770986       -9.9413132765
 O        -0.8337074533       -2.0785417982      -10.9019057050
 C        -0.1553354517       -1.9378874360       -8.6153719360
 C        -1.0578350259       -0.6323908172       -8.3858757581
 C        -2.4089610496       -1.0226579353       -7.7141586628
 O        -2.7307957335       -2.2032002076       -7.6012613552
 C        -3.5036590685        0.0744626550       -7.2345294240
 C        -3.9534280793        0.9680725640       -8.5439423104
 O        -3.7598246628        0.5501770031       -9.6427747522
 C        -4.6074347214        2.3059240695       -8.1957202010
 C        -4.4879085187        3.2065843185       -9.4215883586
 C        -5.2628567736        4.5628427040       -9.4015709184
 O        -6.1213512111        4.8556752392       -8.5868911123
 C        -4.8495709571        5.7490506655      -10.4782281430
 C        -6.1288754419        6.1031731601      -11.2287487626
 O        -6.2988451978        5.9569249349      -12.4231858990
 C        -7.3228392260        6.7692046362      -10.4011377904
 C        -8.5146616489        7.1799452282      -11.2888758666
 C        -8.7795517274        6.2259132472      -12.4962540916
 O        -8.9907292283        5.0685649331      -12.3716904464
 C        -8.9865814257        6.8331662678      -13.9825275502
 C        -8.6725184313        5.7307259035      -14.9353632250
 O        -9.5429908993        4.9271136938      -15.3246051298
 C        -7.2415231270        5.8258705645      -15.5159609734
 C        -7.1320331547        4.7358503594      -16.6066840433
 C        -6.9568936559        3.3217779305      -15.9811298325
 O        -6.6786952965        3.2363136035      -14.7957484668
 C        -7.4189809260        2.0681774114      -16.7905706744
 C        -8.4259452797        1.3731452145      -15.8579395205
 O        -9.2247707757        2.0099440768      -15.2142627142
 C        -8.5173798089       -0.1640553026      -15.9065012020
 C        -8.6511011946       -0.8620955281      -14.5223948913
 C       -10.1737974167       -1.3047953527      -14.2731558729
 O       -10.8513451624       -1.4944961222      -15.2462707103
 C       -10.7050913423       -1.3638236571      -12.7670727805
 C       -10.9491699584        0.2815843290      -12.5250068944
 O        -9.9368024425        1.0133318432      -12.6052933011
 C       -12.4055105188        0.8233888969      -12.4350242555
 C       -12.9421871234        0.9842294786      -13.8691039018
 C       -13.0737107997        2.4490906533      -14.2792646048
 O       -12.4845000266        3.3279639981      -13.6737398475
 C       -14.1389979321        2.8730559841      -15.3507015188
 C       -13.6916665396        2.1269615385      -16.7899725184
 O       -13.9524660653        0.9607174392      -16.9999042301
 C       -12.8381839295        2.9315251583      -17.6316738855
 C       -12.8993743182        2.7415738046      -19.1497252434
 C       -11.8313356051        3.6758028812      -19.8289843347
 O       -10.8042437786        3.8871958566      -19.2372160174
 C       -12.1688649706        4.3907186497      -21.0967336071
 C       -11.4373337962        3.5850629771      -22.2133966214
 O       -12.0568362914        2.8931700817      -22.9733823657
 C        -9.8705867329        3.6654055188      -22.2175793846
 C       -13.6806303876        4.3618013829      -21.5577874230
 C       -11.5867610516        5.8167713324      -21.0892116858
 C       -15.5496478422        2.1965624473      -14.9566792112
 C       -14.4670020727        4.3410958744      -15.4481844357
 C       -12.0671222379       -2.0023951229      -12.6275096490
 C        -9.7161941162       -1.9232639641      -11.7502350979
 C        -8.0998189151        2.4635355507      -18.0523827048
 C        -6.2038094699        1.0947483757      -17.0978034052
 C       -10.4474286470        7.2888907343      -13.9254205861
 C        -8.0113872258        8.0655049638      -14.1850617473
 C        -4.4446654240        6.9455922958       -9.6012902628
 C        -3.5965945819        5.4078330168      -11.4117000627
 C        -4.7073448259       -0.6830816819       -6.6624819930
 C        -2.9395514173        0.9704881835       -6.0858233453
 C         0.3439631469       -4.4311655408      -11.6687678789
 C        -1.0491374582       -5.0281247172       -9.4885886012
 C         3.2243873699       -3.5642066557       -5.0943347583
 C         5.6843337483       -4.1497277444       -5.4517902372
 C         0.7693548393       -8.5753480572       -1.5671379460
 C         1.9384575641       -6.7581293100       -0.2774535120
 C         7.5543949600      -11.1937513435        0.8817388742
 C         7.9830921436       -8.7741888607        1.3902653469
 C         9.7939354067      -10.3525589375       -5.6483242257
 C         7.6566441878       -9.2090087738       -6.4975670774
 H         8.1949457361      -12.8048407003       -5.5265450667
 H         7.2396344893      -12.8981548806       -3.9821781680
 H         8.9500749425      -12.5322448599       -3.8256321986
 H        10.4384830298       -8.0105818414       -3.2904567540
 H        10.2227466264       -9.8144698339       -3.0079426760
 H         8.5737116194       -7.7370213716       -1.5265919184
 H        10.0527550038       -8.2050909512       -0.8727819657
 H         5.2838278598       -9.8763310577        1.3931980841
 H         4.6924332793      -10.7991824716        0.0293859646
 H         4.3539029516       -7.6642428921        0.1049516395
 H         3.3404412508       -8.7435703696        0.9611003059
 H         1.1855009450       -7.8747056050       -4.1628856643
 H         2.9627982568       -8.3838973169       -4.0636745643
 H         1.7064706691       -5.7102203441       -5.0918738223
 H         2.3002692448       -6.9745982960       -6.1694072389
 H         4.1287765602       -2.7880576259       -8.2766492128
 H         2.6018546497       -3.1654808488       -7.4666857195
 H         3.3199930543       -4.5491242472      -10.1322352655
 H         2.6339011860       -2.9275899358      -10.0722104549
 H         0.8781628879       -1.4919988737       -8.6854986941
 H        -0.1941560554       -2.6042327929       -7.7079814923
 H        -1.1905297664       -0.0129097322       -9.2224856695
 H        -0.4134002656        0.0954185312       -7.8410244687
 H        -4.3104944854        2.8054835800       -7.3034641594
 H        -5.7024351623        1.9821490690       -7.9577145568
 H        -4.8485224679        2.5837175973      -10.2464442761
 H        -3.4387773170        3.4033735615       -9.7060556479
 H        -6.8567051715        7.5705476344       -9.8535009621
 H        -7.5666046205        6.1007473941       -9.6434680618
 H        -8.2383221861        8.0883911411      -11.7307426496
 H        -9.4404911698        7.3822726567      -10.6851224998
 H        -6.5998781220        5.6520622188      -14.6593375218
 H        -7.0844025223        6.8301824057      -15.8942718969
 H        -6.2982684660        5.0590419636      -17.3007990049
 H        -8.1071564918        4.7540849954      -17.0864525265
 H        -7.6419416030       -0.6141019390      -16.4906022920
 H        -9.4276757574       -0.4401486046      -16.3700155870
 H        -8.4109838320       -0.2466534511      -13.7010011818
 H        -8.0007561817       -1.6838073922      -14.5847872194
 H       -12.3496998722        1.7369933563      -11.8939220946
 H       -13.0195426313        0.1897378472      -11.7947850263
 H       -13.8663684249        0.6144843726      -14.1666652260
 H       -12.1578989195        0.4569480779      -14.4233779875
 H       -11.8075452513        2.7990873462      -17.2692309136
 H       -13.1098066570        3.9836911229      -17.5196653782
 H       -13.9723650223        2.9377500488      -19.4571482578
 H       -12.7300588389        1.7406424792      -19.4891437050
 H        -9.3445565123        4.5750046562      -21.8261352978
 H        -9.3432800156        3.3517226966      -23.1205632888
 H        -9.5506068601        2.9546460936      -21.5147568638
 H       -14.1399291055        4.6926013133      -20.6739146866
 H       -13.9890513156        3.4438270051      -21.9191155852
 H       -13.7230838172        5.0492147953      -22.3471410004
 H       -11.0136560338        5.9574808383      -21.9954507523
 H       -10.7583634733        5.9472750935      -20.3126225248
 H       -12.3204685227        6.6831783026      -21.1032888055
 H       -16.2280040444        2.7505716829      -15.5496955118
 H       -15.6386567503        2.3964138860      -13.8364436822
 H       -15.6352669194        1.1609279045      -15.2239247015
 H       -13.6145121625        4.9576748159      -15.3722660824
 H       -15.1738209805        4.6915252779      -14.6862635532
 H       -15.1047356906        4.5600554994      -16.3418270235
 H       -12.9592613567       -1.6998350967      -13.2554650907
 H       -12.4195646885       -1.9839424145      -11.5897956246
 H       -12.0125454423       -3.0637505263      -12.8897272017
 H       -10.1523160544       -2.1094954470      -10.7543603369
 H        -8.8202645580       -1.3218741040      -11.6345642065
 H        -9.2393746744       -2.8525414972      -12.0211700460
 H        -8.3404277760        1.5589239066      -18.6286253814
 H        -7.5169234866        3.0029660559      -18.6646814185
 H        -8.9931324610        3.0518365147      -17.8461281754
 H        -5.4501107030        1.6772139033      -17.6301876414
 H        -6.3756242331        0.1743757081      -17.6761485781
 H        -5.7841298275        0.8170657828      -16.1194148035
 H       -11.1544645860        6.5996032433      -13.3455993934
 H       -10.9404247420        7.4236886312      -14.8379936333
 H       -10.4602093850        8.2648073737      -13.3668676698
 H        -7.0056892998        7.7113287747      -13.9366561258
 H        -8.3407392160        8.8235828129      -13.4672733528
 H        -8.2236034082        8.5017620856      -15.1281843628
 H        -5.1559347638        7.1858533838       -8.8503304902
 H        -4.3553937268        7.9017540653      -10.1759360777
 H        -3.4992101228        6.6829381656       -9.0802494544
 H        -3.8412722485        4.5521930731      -12.0261146022
 H        -2.7738803154        5.2315958690      -10.7291454171
 H        -3.3963171074        6.1181220008      -12.1472612261
 H        -4.7412962011       -0.7119562535       -5.5599309246
 H        -4.7232587150       -1.7530445790       -7.1002247832
 H        -5.6304521866       -0.1966891503       -6.8271886567
 H        -2.8234439353        0.3733344452       -5.1794199079
 H        -3.6998827199        1.6858301837       -5.9033127933
 H        -2.0723428384        1.5497006175       -6.3135349112
 H        -0.4914457127       -3.9642070256      -12.1873605121
 H         0.3356522396       -5.5239142546      -11.8039113464
 H         1.3488330335       -4.0115345643      -12.0363725514
 H        -0.9121232817       -6.0667621963       -9.7303233393
 H        -1.9890444671       -4.7080314792       -9.8414146987
 H        -1.0119370778       -4.8693981369       -8.3895423068
 H         3.1148791197       -3.7428524652       -4.0222030481
 H         2.3242146776       -3.7028232887       -5.5862189275
 H         3.7210842553       -2.5689547090       -5.1446551748
 H         5.7611711589       -3.1745229582       -5.9496687530
 H         6.3247003067       -4.8580450688       -6.0202425983
 H         5.8935692641       -4.1280618426       -4.3365788307
 H         0.8605393428       -9.4317383145       -2.1695052719
 H         0.0524984997       -7.9168929474       -1.9445685755
 H         0.4661893061       -8.8530043805       -0.5178614207
 H         2.7727770346       -6.1264645989        0.0179699503
 H         1.6116139891       -7.3081673027        0.5786679842
 H         1.0378517430       -6.1692861505       -0.5515541464
 H         8.4753882939      -11.6643944606        1.1560472853
 H         7.0703908191      -11.8792892593        0.1948420582
 H         7.0667111655      -11.1980421280        1.8839895436
 H         6.9718961776       -8.6145857280        1.6613914797
 H         8.6013098929       -8.0304738845        0.9655638510
 H         8.4413506447       -9.1991840998        2.3054744626
 H         9.4727702398      -11.0481765355       -6.4378559527
 H        10.3760721189      -10.9238415898       -4.9134243779
 H        10.3964959992       -9.5774467817       -6.0853950618
 H         8.4523672591       -8.8340295212       -7.1417609883
 H         6.9462089616       -8.4525828617       -6.2716755417
 H         7.3120416213      -10.0786531549       -7.0245316883
 Na        5.4004316827       -8.5024532522       -3.6787954197
 Na      -10.0964750742        3.2141300911      -13.6590739894
