232

 C       -19.4281169659       -9.8004656354       -0.5344266201
 C       -18.3637134986      -10.8882335279       -0.7647764099
 O       -17.7341624864      -10.8377080295       -1.7981719189
 C       -18.1672750347      -12.0427529939        0.2704885348
 C       -16.6762198836      -12.4507332557        0.1593504856
 O       -16.1914289254      -13.1539320034       -0.7125892365
 C       -15.7765548067      -11.8221756710        1.2288868673
 C       -14.3535520176      -11.3608722886        0.6843665169
 C       -14.5806515907      -10.1038615899       -0.3371223343
 O       -15.6318041946       -9.5268065331       -0.3019616544
 C       -13.3544306712       -9.5703236506       -1.1955417769
 C       -13.4388248242      -10.3561517434       -2.6189694482
 O       -13.5114511049      -11.5284659960       -2.6621724850
 C       -13.0960450158       -9.5881645840       -3.9639702437
 C       -13.4767784380      -10.4461249909       -5.2551701255
 C       -14.9988355134      -10.4444000624       -5.5644250807
 O       -15.7755350470      -11.0440221858       -4.8625499178
 C       -15.3820852875       -9.6770011420       -6.7968435893
 C       -14.7913466516       -8.0571758423       -6.7800178962
 O       -14.5440108164       -7.5340636765       -5.7169398472
 C       -14.8036667313       -7.3302888330       -8.2243537852
 C       -13.9329867421       -6.0770441941       -8.2758738610
 C       -14.3827174886       -5.2291235332       -9.3846426824
 O       -15.4886630934       -4.6593277295       -9.4447879332
 C       -13.4843947088       -5.0813317644      -10.7611504984
 C       -12.1488073013       -4.2600036993      -10.5064797339
 O       -11.2017389064       -4.8582401254      -10.0963338585
 C       -12.1461127946       -2.6867374100      -10.6173000868
 C       -10.9788740893       -2.0571421029       -9.8506236521
 C       -10.2373877547       -0.8991255014      -10.5219436753
 O       -10.4593847185       -0.6634064937      -11.6889923137
 C        -9.2801383196       -0.0438164993       -9.6402882307
 C        -7.7872332992       -0.6677252722       -9.9844213923
 O        -7.5176145164       -1.7332212039       -9.5818492384
 C        -6.8940476420        0.2231468419      -10.9326086234
 C        -5.3848911172        0.1662726422      -10.6015814212
 C        -4.6854946837        1.3867924322      -11.1694587300
 O        -5.2032931057        2.4819529381      -11.0283689991
 C        -3.2701619752        1.1321678832      -11.9179423293
 C        -2.1927501819        0.4417422777      -10.9677757347
 O        -2.2912262546       -0.7166568178      -10.6807488500
 C        -1.3065060471        1.2573697958      -10.1550010889
 C        -0.3549782440        0.2818531816       -9.4905331870
 C         0.4095106243        0.9860230816       -8.3132807511
 O         0.1463098453        2.0431018619       -7.8477128125
 C         1.4476388859        0.1267091125       -7.6093824803
 C         2.9086367882        0.7655923022       -7.7851590401
 O         3.8644500515        0.1803436727       -8.0436940057
 C         3.0113200611        2.3089836063       -7.4875925009
 C         4.0732104887        2.9204603496       -8.3886231596
 C         3.4006857419        3.5083131834       -9.7080390066
 O         2.2331993276        3.4896280304       -9.9349545882
 C         4.4978841980        4.5871925777      -10.3224542362
 C         4.3309455183        4.4120199574      -12.0072026272
 O         5.2789253536        3.8115814648      -12.5289187973
 C         3.1410634348        4.7375752908      -12.8363679449
 C         3.1744580664        6.1995864625      -13.3268187002
 C         4.4066936965        6.5218366882      -14.1336694129
 O         5.4100828497        5.8589497590      -14.0385521829
 C         4.2948676074        7.6755633023      -15.1655164434
 C         5.5499124248        7.5918964195      -16.0820904695
 O         5.3982123928        7.4267086725      -17.2488232796
 C         6.8698544903        7.8557366999      -15.4285998419
 C         8.0478374471        7.4339820654      -16.2800671585
 C         7.9819104310        5.7950876010      -16.4469201392
 O         7.9529741055        5.2028505784      -15.3801879928
 C         8.0929732500        5.0282070410      -17.8046905401
 C         9.3961261639        3.9996044478      -17.6910635804
 O        10.1786854199        4.1754702607      -16.8076524128
 C         9.5412676263        3.0658242193      -18.8362905544
 C        10.4528812947        1.9057077932      -18.5977993425
 C         9.6236415555        0.6842253993      -17.9658829245
 O         8.4496594233        0.5703000216      -18.2008939999
 C        10.5156860628       -0.5034722987      -17.1706564262
 C        10.0341221566       -0.0838047724      -15.6733900961
 O        10.2900684796        1.0161345356      -15.1562250620
 C         9.2681436274       -1.1094583279      -14.8225922840
 C         8.8200192135       -0.3811696951      -13.4741406519
 C         7.7125045982        0.6148429465      -13.6564587655
 O         7.9162215216        1.8158207652      -13.6124064930
 C         6.1335855514        0.1427055377      -14.1315746841
 C         5.9096031279        0.6624913889      -15.5479253814
 O         5.7631091369        1.8624961648      -15.7741383438
 C         5.8014722242       -0.2871843724      -16.7730631200
 C         5.9011387601       -1.3818617611      -14.1598339283
 C         5.3006954445        0.8824742527      -13.1730787133
 C        10.0579162667       -1.8548463059      -17.5873464818
 C        12.0616754966       -0.3117989636      -17.3651183974
 C         6.7288633933        4.2871787143      -17.9243280434
 C         8.3585452794        5.9141198273      -19.0362344204
 C         2.9832064523        7.6081109522      -16.1001927139
 C         4.2957280235        8.9977746284      -14.2174107408
 C         4.0287079480        5.9602586518       -9.8709398711
 C         6.0324282054        4.3939870527       -9.9912180548
 C         1.2318966419        0.2630008690       -6.1343723889
 C         1.5813425008       -1.3572360355       -8.0086373270
 C        -3.7170970613        0.1565201139      -13.0538178202
 C        -2.8502017271        2.4860473005      -12.6344411826
 C        -9.3056815197        1.5077940327      -10.0342888380
 C        -9.5269647822       -0.2802243718       -8.1798508533
 C       -13.1604053146       -6.5222962141      -11.2990556265
 C       -14.2937369011       -4.3666418436      -11.8882204071
 C       -14.8394039364      -10.4949665933       -8.0969635687
 C       -16.9000966418       -9.6886790628       -6.8172956038
 C       -13.6823122243       -8.1018577929       -1.3754209923
 C       -11.9658552878       -9.9142324836       -0.5953800969
 C       -18.6363638198      -11.6334984114        1.6825299853
 C       -19.1583282414      -13.1873777181       -0.2557089328
 H       -19.0705794353       -9.2983536992        0.3763660669
 H       -20.3387492883      -10.2670346088       -0.2670013167
 H       -19.4670543465       -9.1566051987       -1.4090781679
 H       -15.6651366295      -12.5656003313        2.0405783916
 H       -16.2995846418      -11.0242079618        1.7063071585
 H       -13.7993428626      -12.1613009411        0.2609081738
 H       -13.8014266900      -10.8379716506        1.4153456707
 H       -12.0179582004       -9.4735435738       -3.9858010898
 H       -13.4532935712       -8.5731392915       -3.9845265684
 H       -13.0978908306      -11.5663005154       -5.1293463332
 H       -12.8893674312       -9.9578891488       -6.0894501240
 H       -15.8681162734       -7.0801917167       -8.3970714196
 H       -14.4482186693       -7.9845850037       -9.0658008498
 H       -12.8795661171       -6.4437760107       -8.3612117489
 H       -14.0111733130       -5.7067269839       -7.3139005825
 H       -13.0605557497       -2.0991629394      -10.3441650447
 H       -11.9866258162       -2.4750324024      -11.6937470336
 H       -10.2491312811       -2.8637823158       -9.7783420339
 H       -11.3417235841       -2.0110698028       -8.7935786897
 H        -7.0842812745        1.2977054721      -10.9407445857
 H        -7.0829415240       -0.2008685474      -11.9706908412
 H        -4.9965427938       -0.9068031136      -10.9309581047
 H        -5.1344806550        0.0847029071       -9.5226164651
 H        -1.7125527705        1.8664708142       -9.3948953433
 H        -0.6536626574        1.9567677695      -10.7218711743
 H         0.4697337988       -0.0641685261      -10.1971679937
 H        -0.8003421019       -0.5657228422       -9.0582358508
 H         3.3746294207        2.3848031837       -6.4961607836
 H         2.1346994262        2.7624494309       -7.7661083586
 H         4.8943644507        2.1406765722       -8.4726463775
 H         4.3581122607        3.8358773109       -7.8527381380
 H         2.1812089423        4.7355306888      -12.2331941445
 H         3.0545564148        3.9809397325      -13.6570081393
 H         3.0928586046        6.7869584202      -12.4365572619
 H         2.2430012443        6.3532020253      -13.8426058931
 H         6.9813576921        7.2913677431      -14.4528609488
 H         6.9298121332        8.9365752023      -15.2004280338
 H         9.1186132159        7.6754350912      -15.9324350570
 H         7.9581560964        7.9117281729      -17.2810966694
 H         9.9119286221        3.6365509353      -19.6549365018
 H         8.4711763538        2.8206806212      -19.1399879577
 H        11.2850955961        2.1673347962      -17.9099701728
 H        10.9232511650        1.5044994719      -19.4854508279
 H        10.0009199536       -1.8827221444      -14.5139591467
 H         8.4320581721       -1.4260933632      -15.4088284028
 H         9.7714521460        0.1284596297      -13.2037824800
 H         8.4974452512       -1.1976576387      -12.8663242818
 H         6.6961705210       -1.0112884633      -16.9473331778
 H         5.5427489722        0.1846105420      -17.7371578478
 H         4.9865432968       -0.9837147544      -16.4996322846
 H         4.8475877906       -1.4370379727      -14.2160598393
 H         6.0547284083       -1.8567689943      -13.1649837433
 H         6.3430808627       -1.9212674538      -14.9673905863
 H         4.2737602178        0.5794221631      -13.2725069848
 H         5.3633946954        1.9974625855      -13.4495373398
 H         5.6981687386        0.7244719533      -12.2223520308
 H        10.2835606200       -2.0314307818      -18.6655769641
 H         8.9886837167       -2.1257941711      -17.5741916984
 H        10.5570995181       -2.6413482763      -17.0441096862
 H        12.3097979627       -0.2935494636      -18.4180609301
 H        12.6291557751       -1.2098226852      -17.1940775869
 H        12.3390786783        0.5511806706      -16.7571613159
 H         6.6413969311        3.4455026285      -17.3345216976
 H         6.6786069525        4.1572305657      -19.0121898452
 H         5.9541107240        4.9836174857      -17.6546107525
 H         9.3084480103        6.4638336568      -19.0262740990
 H         7.5778038096        6.7072533561      -19.1211325728
 H         8.3598076559        5.3321430199      -19.9305244958
 H         2.0690744839        7.7469567871      -15.4818667983
 H         2.8259744397        6.6517931431      -16.4537476605
 H         3.2140941658        8.3134953653      -16.9320937134
 H         4.6267480813        9.8472051482      -14.9260301202
 H         5.0196943951        8.9759656852      -13.3505688711
 H         3.2662383021        9.0578345366      -13.8987658473
 H         3.9368308946        6.0815829597       -8.8107978421
 H         3.0983282416        6.4551990954      -10.2818334787
 H         4.8294191431        6.7050693791       -9.9865242898
 H         6.6396125508        4.8437186370      -10.7568459429
 H         6.2648474516        3.3565301565       -9.7680670640
 H         6.2783367345        4.9781267341       -9.1122827352
 H         1.1846625097        1.2368379121       -5.6521590365
 H         2.2100050695       -0.2186194656       -5.6994148624
 H         0.4804541062       -0.4415481877       -5.6745063023
 H         0.6079242459       -1.8426300065       -7.9354915485
 H         2.2886592984       -1.9214980386       -7.3519655796
 H         1.7288289442       -1.3583486084       -9.1020699875
 H        -3.3276210206        0.4992374602      -13.9594512102
 H        -4.7491485990        0.1313879813      -13.0520968801
 H        -3.2218303092       -0.7822141867      -12.9548549572
 H        -2.3047895288        2.3504433745      -13.5725807187
 H        -2.2858925457        3.0016561554      -11.8624081985
 H        -3.6930567464        3.0316502984      -12.9591915150
 H       -10.1985580182        2.0518818604       -9.5993864803
 H        -9.4656321888        1.6271858036      -11.0427985946
 H        -8.4832696360        2.0651547495       -9.6683905600
 H       -10.5521597554       -0.0677856448       -7.9416612826
 H        -8.7933392750        0.3174529656       -7.6230079523
 H        -9.2315240012       -1.3210166217       -7.9287188179
 H       -12.3258505543       -6.5403040228      -11.9884781862
 H       -14.0617370499       -7.0071708888      -11.6290052370
 H       -12.6928947800       -7.0560479607      -10.4619121677
 H       -14.8302582694       -5.0516443776      -12.5132809583
 H       -13.6562072892       -3.8662545979      -12.5675016747
 H       -14.9505423567       -3.5243945624      -11.6163442684
 H       -13.8346255802      -10.2051256179       -8.4158854681
 H       -15.4709470075      -10.4249402727       -8.9787763391
 H       -14.8677731786      -11.5099661103       -7.8391329868
 H       -17.2334322284       -9.3526482880       -5.8771353730
 H       -17.4131955425      -10.6273812769       -6.8191606569
 H       -17.4641883916       -8.9488162288       -7.5306672090
 H       -14.6787298450       -8.0215130281       -1.7234664245
 H       -13.0816526401       -7.4812031262       -2.0705537133
 H       -13.5893639701       -7.5385947477       -0.4184882171
 H       -11.9252856171      -10.9687883072       -0.5267946044
 H       -11.9718759659       -9.5183915091        0.4267531221
 H       -11.0915085070       -9.6155539752       -1.1367298247
 H       -18.3096685375      -10.6853718193        2.0441427442
 H       -18.2853907884      -12.3529421809        2.4369493623
 H       -19.7879349735      -11.5062881540        1.6527980138
 H       -18.5681832999      -14.1542032184       -0.2867821354
 H       -19.5244726500      -13.0001168792       -1.2584619816
 H       -19.9882635696      -13.3299310701        0.4189108615
 Na      -15.9936328849      -12.0070529862       -2.8083950439
 Na        6.6619602452        3.6695849495      -14.7037876871
