232

 C       -19.4879096536       -9.7329347717       -0.5571835827
 C       -18.3800142128      -10.8002100962       -0.7792357271
 O       -17.6409358592      -10.7567933954       -1.7611561376
 C       -18.2789805430      -11.9904873190        0.2332457769
 C       -16.7286672717      -12.4044428118        0.2498240293
 O       -16.2917809750      -13.0491594628       -0.6996249819
 C       -15.8156930597      -11.7252204438        1.2549971333
 C       -14.4716643718      -11.2516689536        0.7782440519
 C       -14.5313553604      -10.0916018714       -0.2920920594
 O       -15.5952321879       -9.4448416800       -0.4295291215
 C       -13.3330109909       -9.5762857784       -1.1679934332
 C       -13.3269411595      -10.4118395302       -2.5558266363
 O       -13.7714988793      -11.5286222752       -2.5425623247
 C       -13.0542120791       -9.6307687142       -3.8608127497
 C       -13.3045611953      -10.4010507489       -5.1502623699
 C       -14.7884832857      -10.4539831332       -5.5219306385
 O       -15.6558424002      -11.0186526686       -4.8031888791
 C       -15.3274023644       -9.7142491296       -6.8267561368
 C       -14.8214995941       -8.1733600192       -6.8486125489
 O       -14.6075255620       -7.5894163495       -5.8106694498
 C       -14.7308386359       -7.3647817125       -8.0794224239
 C       -13.7668749016       -6.0827264577       -8.2870276122
 C       -14.3378667167       -5.2524810683       -9.4700211318
 O       -15.3961344563       -4.6686236094       -9.3320197751
 C       -13.5391921974       -5.1788955936      -10.8083741044
 C       -12.1495689054       -4.2617858337      -10.4078977059
 O       -11.1655403045       -4.8586219059      -10.0402684604
 C       -12.1648955381       -2.8037884244      -10.5675268871
 C       -10.9565479055       -2.1250037499       -9.8636138124
 C       -10.2791541202       -0.8736912759      -10.5699976159
 O       -10.4256534418       -0.6190766887      -11.7681351764
 C        -9.2148122832       -0.0515387176       -9.7290126852
 C        -7.8642332531       -0.6334978153      -10.1220528732
 O        -7.5211272925       -1.7448183067       -9.6272902097
 C        -6.8651466674        0.1690165352      -10.9132547163
 C        -5.3101638014        0.0971193573      -10.4929253499
 C        -4.6352545860        1.3212693341      -11.0630404024
 O        -5.0391358785        2.4336208830      -11.1248447876
 C        -3.3438578555        1.0768244226      -11.9290895981
 C        -2.3530033629        0.4994380639      -10.9567150343
 O        -2.3671997090       -0.7233602881      -10.8148913475
 C        -1.3242102737        1.4421982364      -10.1678319389
 C        -0.2859158103        0.4672175535       -9.5205044830
 C         0.3841168102        0.8907768781       -8.2072344674
 O         0.0579086376        2.0065323900       -7.7789476529
 C         1.5585252427        0.0202305620       -7.5236511371
 C         2.9084054429        0.7501157964       -7.7713403249
 O         3.9727329552        0.1425924602       -7.9634922735
 C         2.9578378888        2.2866928190       -7.5513347478
 C         4.0231074814        2.8811328664       -8.4864861467
 C         3.4685059040        3.6521095834       -9.7222338103
 O         2.3809224276        3.3885003517      -10.1634526751
 C         4.4472786542        4.5666076985      -10.3904745863
 C         4.3182467763        4.2906050349      -11.9137985804
 O         5.2588671471        3.7248826162      -12.4945710533
 C         3.0809599362        4.7370527757      -12.7285761868
 C         3.2102611951        6.2483004243      -13.2648346271
 C         4.4032535996        6.4639302116      -14.1559195958
 O         5.5459573452        6.0221840909      -13.9701383223
 C         4.3007875784        7.7778406673      -15.2094779789
 C         5.4787818825        7.7572088142      -16.1086919459
 O         5.3834725439        7.2988150329      -17.2626384716
 C         6.8827936528        7.8564099900      -15.4228886266
 C         8.0409153179        7.3212659336      -16.2634755506
 C         8.0776130025        5.8622547246      -16.4659219994
 O         8.0391060709        5.1692774730      -15.4213281082
 C         8.1103746896        5.1057455620      -17.7885786351
 C         9.3500689950        4.1335357320      -17.6767792323
 O        10.1468075582        4.1840361155      -16.7976304393
 C         9.5560839725        3.1382824209      -18.9230258637
 C        10.3636021802        1.8900565995      -18.5900169227
 C         9.6535869106        0.6577705783      -17.9455560574
 O         8.4303992851        0.5460746950      -17.9681637210
 C        10.4837179699       -0.3447590512      -17.1708693041
 C        10.0726891694       -0.0288379962      -15.7125332891
 O        10.2887794218        1.0330582543      -15.2016256977
 C         9.1900846270       -1.0845202850      -14.8323422266
 C         8.7078388000       -0.4400413092      -13.5564258258
 C         7.7235042426        0.6482136817      -13.9455878426
 O         7.8858083259        1.8416846731      -13.8014983541
 C         6.2179835536        0.1486835801      -14.2164729741
 C         5.9142792713        0.6355717207      -15.6551536819
 O         5.7353375977        1.8266945615      -15.8763626079
 C         5.7542189318       -0.3924664188      -16.7468701268
 C         5.8202119669       -1.4864882281      -14.0907159455
 C         5.3388147886        0.8768414920      -13.2195910362
 C        10.0715306007       -1.7685726657      -17.4814659323
 C        11.9958837799       -0.2156863094      -17.3697298701
 C         6.6521013564        4.3284543932      -17.8936740956
 C         8.4104381439        5.8449170971      -19.0969915730
 C         3.0315052045        7.6927417184      -16.0326698943
 C         4.3605371535        9.0125636957      -14.2597019863
 C         4.1218346995        5.9264621421       -9.7690114764
 C         5.8585244338        4.2905464967      -10.0131856125
 C         1.2630215650        0.2177538484       -6.0163053619
 C         1.4890992481       -1.4923368510       -8.0562309787
 C        -3.6562948339        0.0575347622      -13.1478653726
 C        -2.8402424550        2.3958300555      -12.5989961992
 C        -9.4507328710        1.4123800094      -10.0333682856
 C        -9.3607311354       -0.3207833854       -8.2457091042
 C       -13.1947910282       -6.5809280441      -11.2581220011
 C       -14.5462316529       -4.4974368999      -11.7660751637
 C       -14.8753276678      -10.4517510865       -8.0819688855
 C       -16.8910861247       -9.6221590633       -6.9737683460
 C       -13.5898153833       -8.0940838905       -1.4584531445
 C       -11.9850504881       -9.6896536497       -0.3887392170
 C       -18.6790639937      -11.5788081827        1.6979566444
 C       -19.1820940685      -13.1418500110       -0.3582060816
 H       -19.2030876106       -9.0075000060        0.1450125364
 H       -20.3355240366      -10.3341004426       -0.0941745147
 H       -19.7284801358       -9.3446326109       -1.5352367319
 H       -15.6419509225      -12.4839652475        2.0301630613
 H       -16.4007277849      -10.9603103187        1.7513646872
 H       -14.0623127326      -12.0500227194        0.2015723396
 H       -13.8081460838      -10.8743905889        1.5770542411
 H       -12.0514900945       -9.1360229672       -3.9251879930
 H       -13.7175481085       -8.8045023763       -3.7477526289
 H       -12.9365045264      -11.4405395110       -5.0177013410
 H       -12.7307226980       -9.9310717819       -5.9631997627
 H       -15.7627079273       -7.0287840035       -8.1470782814
 H       -14.5321201644       -8.0019192143       -8.9837224859
 H       -12.7629626300       -6.4670962077       -8.2105067671
 H       -13.9428435294       -5.5311332262       -7.3726696087
 H       -12.9859566492       -2.2464292322      -10.1604284013
 H       -12.1096183556       -2.6469800741      -11.6295122247
 H       -10.1443869530       -2.8587764881       -9.6446062711
 H       -11.3966730377       -1.9288650231       -8.8529507568
 H        -7.0365360607        1.2434154926      -10.7542357653
 H        -7.0478425204       -0.0526883495      -11.9733554065
 H        -4.8860087477       -0.8895812874      -10.7011856462
 H        -5.1465476079        0.0939324257       -9.4132409309
 H        -1.7361196932        1.9964972447       -9.3976069458
 H        -0.8469769328        2.1938836621      -10.8265114927
 H         0.5577036746        0.1229550701      -10.1604009949
 H        -0.8904329750       -0.4770973912       -9.2038253000
 H         3.3592432720        2.2893880800       -6.6097686605
 H         1.9496042626        2.7431767994       -7.7926611696
 H         4.3284002162        1.9575809233       -8.9429894883
 H         4.8259782170        3.3481521840       -7.8779284885
 H         2.0835462999        4.6339082933      -12.2214427984
 H         3.0802363433        4.0876972923      -13.5687483739
 H         3.2820470121        6.9613420575      -12.4236556393
 H         2.3123484425        6.4719520233      -13.8118061851
 H         6.9064889989        7.2191999025      -14.4780449358
 H         7.1591310141        8.8567336481      -15.1237476503
 H         9.1731079786        7.4741022052      -15.8064836304
 H         8.1117454420        7.8147929839      -17.2115255699
 H        10.1524645691        3.6908460215      -19.7018119804
 H         8.5704282482        2.9250201570      -19.3836236202
 H        11.0821788497        2.0970303621      -17.8250921492
 H        11.0297286786        1.5175692709      -19.4773402174
 H         9.7238483052       -1.9825985714      -14.5905011873
 H         8.2950523395       -1.1356403131      -15.4568721169
 H         9.6642352865       -0.0034623134      -13.1266658952
 H         8.2257350954       -1.2007249684      -13.0249561860
 H         6.6501492069       -0.9358874734      -16.7610009471
 H         5.5905498463        0.0687309646      -17.8052065449
 H         5.0129575290       -1.1545399850      -16.5444461954
 H         4.8395022366       -1.5271492798      -14.5913420506
 H         5.5451124360       -1.7803214715      -13.1181432200
 H         6.4773201815       -2.1479112520      -14.6126851575
 H         4.5527106536        0.1959706935      -13.0911025413
 H         4.9638740050        1.7889260433      -13.4964020270
 H         5.9030427382        0.8211978529      -12.3244909423
 H        10.3631237213       -2.1611581984      -18.4983309029
 H         8.9820623250       -1.9689306483      -17.4899929425
 H        10.5336458160       -2.4934669679      -16.7755898527
 H        12.2360888729       -0.4202354599      -18.4201443247
 H        12.5138245849       -1.1075825144      -17.0067987644
 H        12.3565720388        0.7121889853      -16.9154935469
 H         6.5451338444        3.5526906832      -17.1516877950
 H         6.7048564846        3.9985541178      -18.9738957652
 H         5.8505074818        5.0787308091      -17.7696142902
 H         9.4881365925        6.2657201859      -19.1743055983
 H         7.8278615061        6.6384176294      -19.3193314200
 H         8.3552098509        5.0146409257      -19.9040830675
 H         2.1720686403        7.9781161564      -15.4696208063
 H         2.8204868060        6.6566529883      -16.3429606634
 H         3.2477147531        8.3042916411      -16.8646881366
 H         4.4739364120        9.8626753707      -14.8954433734
 H         5.2421125499        8.9523700986      -13.6535492750
 H         3.4341859411        9.0443078126      -13.6834854080
 H         3.9940948586        5.8091769686       -8.6871084093
 H         3.1798948767        6.4585466276      -10.0565530919
 H         4.9109490880        6.6743855807       -9.7685764001
 H         6.4924134044        4.8863627374      -10.7810629667
 H         6.1324050342        3.2214628624       -9.9965163100
 H         6.1255992060        4.8170766510       -9.0335988283
 H         1.4381345030        1.3077944715       -5.6405139559
 H         1.9215713807       -0.3613327596       -5.3074628625
 H         0.2405767891       -0.1129881390       -5.6800762998
 H         0.6323326719       -1.9478749356       -7.5754950467
 H         2.3419913713       -2.0538055200       -7.6091770640
 H         1.2922795399       -1.5962420807       -9.1042919514
 H        -2.8369518864        0.0071714772      -13.8514333909
 H        -4.6621762356        0.3834557307      -13.5286890359
 H        -3.5866305355       -0.9238578013      -12.7845616382
 H        -2.0598429429        2.1423096399      -13.3302680354
 H        -2.3139951994        2.9912020052      -11.8234729837
 H        -3.6297685416        2.8822460552      -13.2226902213
 H       -10.0961079268        1.7185861300       -9.2039771871
 H       -10.0813391316        1.6629346610      -10.8672554702
 H        -8.6561063541        2.1826091272       -9.9155274832
 H       -10.3733849487       -0.2165657940       -7.9665231166
 H        -8.6340630780        0.2528031886       -7.6671555673
 H        -8.9959525846       -1.3436393356       -8.1329448840
 H       -12.6171092630       -6.5954591811      -12.2305420334
 H       -14.1472639976       -7.1021493249      -11.2763048492
 H       -12.4480678128       -7.0756241964      -10.6043549876
 H       -15.2503526419       -5.2243846764      -12.2049962564
 H       -14.2210849444       -3.8389837829      -12.6088709115
 H       -15.1118879533       -3.8148224758      -11.2293735255
 H       -13.8259514050      -10.1334675290       -8.3509461066
 H       -15.4695764174      -10.3199325459       -8.9635455984
 H       -14.9237332022      -11.5025295649       -7.9374369811
 H       -17.5151817092       -9.4695160990       -6.1029495116
 H       -17.2877721380      -10.6229716204       -7.1958948635
 H       -17.2442571651       -8.9210542867       -7.6694498454
 H       -14.4896848483       -7.8142206544       -1.9737534968
 H       -12.7668552066       -7.7063498683       -2.0455355272
 H       -13.5103646705       -7.4915328029       -0.5526149080
 H       -11.8404396958      -10.6816962763        0.0280524123
 H       -12.0985145730       -9.0234178130        0.4292155411
 H       -11.0364751210       -9.4804012350       -1.0446879843
 H       -18.7151099555      -10.4255998985        1.8617533463
 H       -18.0732254326      -12.0210469597        2.5604996051
 H       -19.7300738313      -11.6985754203        1.7722897555
 H       -18.6587696613      -14.0555461055       -0.2564194902
 H       -19.3021811941      -13.0010952716       -1.4459737421
 H       -20.1497631150      -13.2045400065        0.1057327676
 Na      -16.0612851647      -12.0804600303       -2.8869682237
 Na        6.6915433923        3.7665124155      -14.6063658864
