232

 C         7.4795982025      -12.2863529980       -4.8460849610
 C         7.4853004599      -10.7597870741       -4.7304981502
 O         6.5741173527      -10.2657148866       -4.0878815397
 C         8.7320364361       -9.9948588498       -5.2938222572
 C         9.2792803003       -8.8974307304       -4.2572357487
 O         8.6657719397       -7.8304321977       -4.1286568467
 C        10.6095002242       -9.2132667521       -3.4801355192
 C        10.3390495275       -9.2188869311       -1.9683932315
 C         9.3579195141      -10.3608354714       -1.6296179647
 O         9.5076505211      -11.4503904913       -2.1021851973
 C         8.4931334802      -10.1481156660       -0.3615533699
 C         7.4117993223       -9.0094275490       -0.6861578479
 O         7.5913764488       -8.3625330283       -1.6773755494
 C         6.3200231680       -8.7114484580        0.3444506870
 C         5.2180714829       -7.7003146551       -0.0864192026
 C         4.1518242951       -8.2238632456       -1.1255218375
 O         4.5222741893       -8.8280826303       -2.0862605353
 C         2.5263342174       -7.8312684201       -1.0010087341
 C         2.0062175282       -7.2389742328       -2.4040492885
 O         1.2475216108       -6.2804746144       -2.3693002481
 C         2.3580603475       -7.9875013079       -3.6044832164
 C         2.3843156127       -7.0000268507       -4.9347261340
 C         3.6697182099       -6.1358969033       -4.9020541816
 O         4.7432237883       -6.5433413282       -4.4015213628
 C         3.6068902948       -4.6982233224       -5.5626902434
 C         3.4133399611       -4.9446311678       -7.0868863655
 O         3.0024703391       -6.0121798413       -7.5559190432
 C         3.6138876905       -3.7740004411       -8.0258305117
 C         2.8364987761       -3.8364389720       -9.2978232984
 C         1.2718165138       -4.0015215505       -9.1056359035
 O         0.8880078527       -4.4870801949       -8.0702404823
 C         0.2718582886       -3.7260681270      -10.2925085897
 C        -0.4650367488       -2.4247473280       -9.9343065223
 O         0.0281986071       -1.3960909390      -10.3869222633
 C        -1.7380934731       -2.4683001873       -9.1589046405
 C        -2.1659952987       -1.0213032329       -8.6311576686
 C        -3.3166382090       -1.1049899521       -7.6955073163
 O        -3.5396968452       -2.1591857031       -7.1570320852
 C        -4.1867310603        0.2436789996       -7.3593536043
 C        -4.3728042200        1.3126869041       -8.4344831620
 O        -4.0373189715        1.2364409220       -9.5678137696
 C        -5.3132659012        2.4879252085       -7.8590890761
 C        -5.4418077473        3.5361250838       -8.9696755372
 C        -4.5367978161        4.7841889431       -8.8991577959
 O        -3.7117365741        4.9292883638       -8.0631593211
 C        -4.5270599017        5.9130333718      -10.0625114727
 C        -5.9088574872        5.8862237374      -10.6610880243
 O        -6.1327572002        5.2185328649      -11.6749518933
 C        -7.1794166264        6.3401015298       -9.8646819537
 C        -8.4116414435        6.6135297475      -10.6881887061
 C        -8.6568635493        5.8497318055      -11.9755077628
 O        -8.8992496078        4.6241912320      -11.9464068476
 C        -8.6309545294        6.6432275509      -13.2714033903
 C        -8.4456748730        5.6403114574      -14.5770924792
 O        -9.3177570553        5.3520604727      -15.3191065621
 C        -7.0043577244        4.9992594578      -14.8970679573
 C        -7.1304124924        3.9317420104      -16.0477069009
 C        -7.7865394658        2.6849767611      -15.5595483371
 O        -8.0115383748        2.4703130091      -14.4059269826
 C        -8.0545568453        1.6298241181      -16.6929945787
 C        -9.0946315057        0.6135262376      -16.0090764383
 O        -9.9009746918        0.9643869930      -15.1169803387
 C        -9.3816743928       -0.7850727015      -16.5002068006
 C        -9.4076072322       -1.7501250009      -15.2851306870
 C       -10.7978680838       -1.3547779397      -14.5679581504
 O       -11.8980909021       -1.5084658198      -15.0804843885
 C       -10.7597406543       -1.1148980055      -12.9448212735
 C       -10.8609225847        0.3850438264      -12.7299335891
 O        -9.8298491068        0.9699655967      -12.5107418666
 C       -12.2582772105        1.1650749401      -12.7775859513
 C       -12.7836935134        1.4082788891      -14.2569888205
 C       -12.9839107130        2.9246995996      -14.5395539757
 O       -12.1491009125        3.7775027979      -14.1553797394
 C       -14.0204368526        3.3335675068      -15.5799266924
 C       -13.5745169055        2.8360298722      -17.1088390548
 O       -13.9101361612        1.7255888037      -17.4986445126
 C       -12.9447216117        3.8241368477      -18.0490981226
 C       -13.5366613555        3.8542333379      -19.4685346491
 C       -12.4719243697        4.4256405772      -20.3810014649
 O       -11.3837781325        4.8306576892      -19.9420171339
 C       -12.7072657196        4.4040320600      -22.0445435985
 C       -11.8794430818        3.1128158681      -22.3922024719
 O       -12.4274067002        2.0800215741      -22.6524849750
 C       -10.3154219057        3.1744642947      -22.3163202614
 C       -14.2251801519        4.1598496515      -22.4275754745
 C       -12.0990617678        5.7216019877      -22.5935641654
 C       -15.3748025605        2.6479515320      -15.1970706739
 C       -14.0692904106        4.9139123961      -15.5470614190
 C       -11.8863540480       -1.9122060458      -12.2282339252
 C        -9.3898250698       -1.7017397658      -12.3629682744
 C        -8.8763231371        2.2158668920      -17.8265663749
 C        -6.7397241977        1.0724512582      -17.3222444175
 C       -10.0220161599        7.2923524941      -13.6222154216
 C        -7.4952387161        7.7091114832      -13.2904145227
 C        -4.2867918140        7.2845363810       -9.3257747913
 C        -3.3994564234        5.6148254469      -10.9940460560
 C        -5.7285543209       -0.2502585265       -7.1100001268
 C        -3.5470917780        0.9194053537       -6.0869099398
 C         1.0540465569       -3.4456363012      -11.5704357781
 C        -0.6428730636       -5.0270907333      -10.3051291276
 C         2.4361886154       -3.9333353268       -4.8719309460
 C         4.9573298141       -4.0468540658       -5.2818628963
 C         1.6860568471       -9.1816176933       -0.9313107747
 C         2.1226863898       -6.9233238214        0.2216921516
 C         7.7567445049      -11.4159998444        0.1746298060
 C         9.4567138159       -9.4583085395        0.8079573933
 C         9.8719441190      -10.9548469276       -5.7900555453
 C         8.3057069552       -9.2099158393       -6.6021886581
 H         7.6312107220      -12.6788743236       -5.7936339383
 H         6.4788102342      -12.6118712743       -4.5916432085
 H         8.2410539104      -12.5772771301       -4.1447785830
 H        11.3652458274       -8.4285044440       -3.7609745093
 H        11.0912596750      -10.2096755712       -3.7257146871
 H         9.9866685636       -8.1609356652       -1.6495366715
 H        11.3322020703       -9.3659284193       -1.4814241851
 H         6.7854867570       -8.3464665856        1.2194948839
 H         5.8180977192       -9.6541945084        0.4186896495
 H         5.7167471168       -6.8389336479       -0.5653015488
 H         4.7309967090       -7.4435139568        0.8288809916
 H         1.5418369311       -8.7359411941       -3.5865034776
 H         3.2323558198       -8.6327106907       -3.5661150759
 H         1.5504038749       -6.3691153409       -4.9625742722
 H         2.3256466108       -7.5241463472       -5.9678457839
 H         4.7265363023       -3.5552454815       -8.3162826866
 H         3.2459010902       -2.9356759742       -7.4311540004
 H         3.0405742847       -4.7838839048       -9.8370550608
 H         3.0258039324       -2.9840550254       -9.9127504332
 H        -1.6196073424       -3.1421021269       -8.2159845834
 H        -2.6133198429       -2.7938266826       -9.7648622766
 H        -2.4113802070       -0.3803693108       -9.5459522275
 H        -1.2861208532       -0.6947951009       -8.1133507738
 H        -4.8809979753        3.0030363659       -6.9697453361
 H        -6.2736959591        2.2698119657       -7.6039982446
 H        -6.4550191519        3.8560432894       -8.9291610445
 H        -5.2656176657        3.0748844905       -9.9748092967
 H        -6.8699704450        7.1395751390       -9.2823420877
 H        -7.4557681921        5.5053533342       -9.3016879164
 H        -8.5278737103        7.7095517453      -10.9813444160
 H        -9.1676284471        6.4307856444       -9.9422886990
 H        -6.6249574268        4.6590790475      -13.9276175276
 H        -6.3367879559        5.7619992346      -15.1332266589
 H        -6.2359091039        3.8150339052      -16.6566417230
 H        -7.8250435905        4.2926634521      -16.8712833390
 H        -8.7522764134       -1.1250710560      -17.3298167592
 H       -10.3914032627       -0.7535372972      -16.9729374086
 H        -8.5288300692       -1.4995952862      -14.5818215083
 H        -9.3763025707       -2.8802701902      -15.4044539692
 H       -11.9562707635        2.1577485127      -12.3697098303
 H       -13.1128140594        0.7358677644      -12.2014945184
 H       -13.6902562760        0.7804677252      -14.4287943503
 H       -12.0871624019        1.1979683038      -15.0288716072
 H       -11.8548742310        3.5200886736      -18.0696891515
 H       -12.8546246509        4.8504367217      -17.7428791545
 H       -14.3827649545        4.4945134329      -19.4790732970
 H       -13.8217457322        2.8582328766      -19.7630046259
 H        -9.9221271499        4.1841204015      -22.7182860595
 H        -9.7757095182        2.4971021694      -22.9096062170
 H        -9.9391503590        3.0806400678      -21.3074211232
 H       -14.7589838474        5.0123231349      -21.9292359596
 H       -14.3822019594        3.1620102172      -21.8756618187
 H       -14.4822161340        4.0490104347      -23.5264085842
 H       -12.0413393239        5.7137622382      -23.6657702335
 H       -11.0807935607        5.9148782153      -22.2454958110
 H       -12.5913636785        6.6498701823      -22.4256820238
 H       -16.2761515753        3.2409646179      -15.4958001435
 H       -15.3672852319        2.3138692550      -14.1725382682
 H       -15.4481708837        1.6573315563      -15.7236767545
 H       -13.0198656930        5.2894941807      -15.6604466886
 H       -14.4549799744        5.1568210084      -14.5788781126
 H       -14.7390113452        5.3724525880      -16.2287186884
 H       -12.7614838590       -1.8163234608      -12.8677209675
 H       -12.0897832931       -1.4639033540      -11.2501332394
 H       -11.8028201456       -2.9300702053      -12.2396498219
 H        -9.5550637082       -1.8584784040      -11.3111101250
 H        -8.6574873190       -0.9625399968      -12.5128436983
 H        -9.1538717519       -2.6946900536      -12.9199490843
 H        -9.2347045653        1.3791201906      -18.4500015746
 H        -8.3365940595        2.9326247376      -18.4907702992
 H        -9.7634692242        2.7915367399      -17.4082213733
 H        -6.0264515913        1.9255220191      -17.2916273865
 H        -6.8877372753        0.7679452775      -18.3841923741
 H        -6.3476604202        0.3171526643      -16.6813027592
 H       -10.6439079841        6.5473943289      -14.1315764923
 H       -10.0028139655        8.1781095211      -14.2358570379
 H       -10.6413715710        7.5014095372      -12.7963373612
 H        -6.5043205744        7.4025406386      -12.9437978438
 H        -7.8718265713        8.4401590310      -12.5828181680
 H        -7.6381367598        8.2728313158      -14.2120658205
 H        -5.1790431775        7.4562721560       -8.7081437519
 H        -4.0808899987        8.1686362501       -9.9302348465
 H        -3.4698657542        7.3285215464       -8.6383635984
 H        -3.5618755699        4.7421582833      -11.5822848872
 H        -2.4944488520        5.5326971562      -10.3434589081
 H        -3.2769636348        6.4463113395      -11.7317942812
 H        -6.0372628203       -0.1959692305       -6.0682826664
 H        -5.7220762335       -1.2753988284       -7.3428938081
 H        -6.4443516295        0.3550011987       -7.7117417025
 H        -3.5408921229        2.0665065935       -6.2209289162
 H        -2.5950248501        0.4956409118       -5.7231319685
 H        -4.2287900159        0.7121349333       -5.2098631583
 H         0.4383204228       -3.5173090011      -12.5019744246
 H         1.8894990418       -4.0815560755      -11.5498652412
 H         1.4505276859       -2.4650320480      -11.4346504000
 H        -0.0577311135       -5.9815167234      -10.3600348458
 H        -1.1702849482       -5.0705427995      -11.1882932883
 H        -1.4938638789       -4.9714032164       -9.6098688949
 H         2.0292988372       -4.4550170156       -3.9874050233
 H         1.5626958849       -3.7206805569       -5.5602651933
 H         2.8088392814       -3.0102593838       -4.4611691170
 H         4.9615948576       -3.0880136331       -5.7791907605
 H         5.7640889390       -4.7222330660       -5.4460882737
 H         5.0179282798       -3.8654180617       -4.2591208782
 H         2.3090398411       -9.9607315365       -1.4985036431
 H         0.7003285273       -9.0529251623       -1.4785871193
 H         1.4384442348       -9.5149091052        0.0475353673
 H         2.4874414813       -5.9328468844        0.0081704230
 H         2.4802810776       -7.1200391083        1.2914549731
 H         1.0815986387       -6.7838939437        0.3728410941
 H         8.4887002692      -12.2613509491        0.2545715250
 H         6.9443215809      -11.7210894990       -0.5225512861
 H         7.3794857532      -11.3008024060        1.1490266437
 H         9.1871825082       -9.7926422759        1.8144779287
 H         9.1421822927       -8.4159414272        0.6914408684
 H        10.5128274682       -9.7608236642        0.6706815610
 H         9.4071557910      -11.6110082017       -6.5088827802
 H        10.2662592787      -11.5454774399       -4.9847245901
 H        10.7023283709      -10.3902913307       -6.2461272604
 H         9.1536047481       -8.6458291459       -6.9872288750
 H         7.5675400373       -8.3942684666       -6.4416796555
 H         7.9082222919       -9.9787638924       -7.3321888798
 Na        6.2733927316       -8.1628539656       -3.5253271677
 Na      -10.1192349572        3.0683986585      -13.2563037318
