232

 C         7.4878993038      -12.3176653683       -4.7997455620
 C         7.5397293841      -10.7429113150       -4.8040075188
 O         6.5779821465      -10.1457985241       -4.3157224348
 C         8.7399653426       -9.9626092576       -5.3958668783
 C         9.2676376458       -8.9137068068       -4.3306435300
 O         8.7055751402       -7.9231016484       -3.9766058310
 C        10.5722759314       -9.2459994398       -3.6349061748
 C        10.2858469307       -9.2381554414       -2.0928085840
 C         9.5337080791      -10.4805488871       -1.5013151228
 O         9.6308535503      -11.5701750450       -2.0362781429
 C         8.5498034402      -10.0685219343       -0.3330536796
 C         7.5280886737       -8.9377492126       -0.6614431666
 O         7.7247034656       -8.2471258941       -1.6511867564
 C         6.3915169085       -8.6437227034        0.3747049876
 C         5.1859282185       -7.6462326354       -0.0642545835
 C         4.1310102756       -8.1799985672       -1.0311223887
 O         4.5370759992       -8.8936833520       -2.0147743728
 C         2.6657806024       -7.8776307873       -0.9661008389
 C         2.0850944434       -7.2186304659       -2.3543632670
 O         1.2486061435       -6.3347646357       -2.2573082448
 C         2.4285880212       -8.0186052125       -3.5659386446
 C         2.4545317040       -7.0841441071       -4.8731652384
 C         3.6758583761       -6.2102769130       -4.8203603444
 O         4.7125936498       -6.4829204098       -4.2044618029
 C         3.5470074394       -4.8512400625       -5.5575557573
 C         3.2452691940       -4.9629996008       -7.0914125865
 O         2.9403693726       -6.0304376851       -7.5905060413
 C         3.6255039834       -3.6711098605       -7.9662544228
 C         2.8622634298       -3.7039907990       -9.3379330604
 C         1.3031663770       -4.0100761658       -9.0629535279
 O         0.9487276686       -4.3917043905       -7.9514183008
 C         0.3572475173       -3.7049192461      -10.2289617570
 C        -0.5161335209       -2.3703390768       -9.9529527933
 O        -0.1689316701       -1.2729775584      -10.4169883202
 C        -1.8309504698       -2.4158035084       -9.1910052255
 C        -2.0903575995       -1.0078766041       -8.4579574486
 C        -3.3941719787       -1.1612348678       -7.6323590688
 O        -3.8070927327       -2.1936065347       -7.0909696967
 C        -4.2273867403        0.0931701394       -7.3484041657
 C        -4.4714790380        1.3227595964       -8.3745196685
 O        -4.0740468727        1.2421761787       -9.5472970631
 C        -5.1469468909        2.5425604613       -7.8579149675
 C        -5.5373021682        3.5438622971       -9.0700090700
 C        -4.4870539386        4.7973966326       -8.9457813587
 O        -3.7872112221        4.8084727123       -7.9690606415
 C        -4.5088788371        5.9236188344      -10.0182305426
 C        -5.9219072981        5.9052689805      -10.7063098202
 O        -6.0278398217        5.4120944435      -11.7905553964
 C        -7.1583372753        6.3531098504       -9.7921066850
 C        -8.4671630348        6.5907633218      -10.5997280275
 C        -8.6692634532        5.7753364791      -12.0014498297
 O        -8.9841618960        4.6136675499      -11.9184487880
 C        -8.6605387768        6.5828386009      -13.3376597702
 C        -8.3107764891        5.5990433110      -14.4884805492
 O        -9.2300335635        5.3459944264      -15.2701427270
 C        -6.8837764951        4.9835119960      -14.8514937016
 C        -7.0596373088        4.0726747364      -16.0743161939
 C        -7.7656566300        2.6267788067      -15.6176413026
 O        -7.8311713584        2.4936637653      -14.4002849649
 C        -8.1579835966        1.5971465933      -16.6900673418
 C        -9.1560300834        0.5270989780      -16.1347862216
 O        -9.8381729567        1.0473166801      -15.2685972759
 C        -9.4287237833       -0.9082417568      -16.5563928415
 C        -9.6018428635       -1.7824684314      -15.3159684538
 C       -10.8608159752       -1.5142571999      -14.4783220199
 O       -11.7992955860       -1.3943341097      -15.1757381174
 C       -10.8569014647       -1.2075731114      -12.9023837344
 C       -10.9372401741        0.3829004914      -12.7751915186
 O        -9.9407562775        1.0627013121      -12.4787521574
 C       -12.2937730875        1.1756884156      -12.8890609403
 C       -12.8007512499        1.4790170233      -14.3023024655
 C       -12.8733041071        2.9359286435      -14.6697639750
 O       -12.2046539587        3.7765871968      -14.0893069354
 C       -14.0511813175        3.4013201984      -15.6522770399
 C       -13.6214812390        2.8376503925      -17.1072130651
 O       -13.8435467499        1.6981745327      -17.4722358478
 C       -12.7837844188        3.7854173461      -18.0100051647
 C       -13.3978723497        3.8618811947      -19.4488955304
 C       -12.4305242079        4.4889823401      -20.4493729012
 O       -11.4125808363        4.9806666536      -20.1083823527
 C       -12.7647117302        4.3667971965      -21.9425011194
 C       -11.9352403784        3.0760185543      -22.3836075317
 O       -12.4369443262        1.9844023789      -22.5553868491
 C       -10.3841766952        3.1390375606      -22.2800832645
 C       -14.2307917373        4.2073213406      -22.1604034147
 C       -12.2647629852        5.6297712856      -22.6348101086
 C       -15.4608782610        2.8546376652      -15.3156601814
 C       -14.2643365648        4.9356409354      -15.5786635167
 C       -12.0161904489       -1.8204675969      -12.1010152732
 C        -9.4522015424       -1.7887286828      -12.3599574683
 C        -8.9449924304        2.2818320127      -17.8746530507
 C        -6.8046469015        1.0171185248      -17.3201935187
 C       -10.0425919692        7.2593778561      -13.5795633651
 C        -7.5881593494        7.6709686166      -13.2277914201
 C        -4.1961653163        7.2646119543       -9.2721154993
 C        -3.3873155796        5.8065267359      -11.1486788532
 C        -5.6669872681       -0.4170488578       -7.0348231363
 C        -3.4529361618        0.7071028581       -6.1380195778
 C         0.9486085600       -3.3136409203      -11.6222568124
 C        -0.4427562185       -4.9812197085      -10.3630204775
 C         2.3870366312       -4.0482811395       -4.9456650851
 C         4.8881956399       -4.0679506497       -5.3428891416
 C         1.7842716089       -9.1912837463       -0.9002425464
 C         2.1836722157       -7.0506949625        0.2057694922
 C         7.7438746320      -11.3195431178        0.1594850596
 C         9.4858989859       -9.5252278570        0.7259234743
 C         9.8428011220      -11.0119660261       -5.8234314908
 C         8.2755667229       -9.1901086862       -6.6933894449
 H         7.7167555767      -12.7671751985       -5.7567577326
 H         6.5083381117      -12.5687150358       -4.7295538666
 H         8.1344656509      -12.6917863169       -3.9858110693
 H        11.3369374225       -8.4518214899       -4.0117412082
 H        11.0636209534      -10.2406540317       -3.9111159180
 H         9.8087717512       -8.3278767284       -1.8914047860
 H        11.2714087010       -9.1420211837       -1.6173642069
 H         6.9951070889       -8.0387614896        1.1269993784
 H         5.9446875419       -9.5851432761        0.6910668547
 H         5.6644221051       -6.8094858459       -0.6440130800
 H         4.7018015185       -7.3250854107        0.9103587483
 H         1.6758378707       -8.8199163487       -3.5706698850
 H         3.3432456751       -8.5981950010       -3.4865375933
 H         1.5175443863       -6.5012469542       -4.9486052522
 H         2.5396225295       -7.5616129851       -5.8287599375
 H         4.6808942223       -3.7956571628       -8.1626541395
 H         3.4327783024       -2.7672648867       -7.4495066838
 H         3.1349072767       -4.5234090556       -9.9845306927
 H         2.8738660387       -2.7294736736       -9.8570937063
 H        -1.9265808218       -3.2029606350       -8.3543921731
 H        -2.7267896589       -2.4818885200       -9.8882939586
 H        -2.3238031470       -0.2711167062       -9.2222356468
 H        -1.1750635958       -0.8407933478       -7.9737681174
 H        -4.4364778735        3.1505874890       -7.2632436568
 H        -5.9939813159        2.3446040117       -7.1520217657
 H        -6.6024097729        3.8513974775       -9.0779695076
 H        -5.3297464147        3.0719743405      -10.0099009619
 H        -6.6755069373        7.2220356665       -9.3510631011
 H        -7.3492869181        5.5785247596       -9.0753101807
 H        -8.5315956953        7.6576770991      -10.8695965886
 H        -9.2575240335        6.4217554488       -9.8982555574
 H        -6.4650215714        4.4919055357      -14.0272487859
 H        -6.1633189941        5.8262054261      -15.0423824239
 H        -5.9723395356        3.9435231777      -16.4814409031
 H        -7.4452761702        4.5585964354      -16.9072193851
 H        -8.5443244136       -1.3357438989      -17.1812170927
 H       -10.2463128525       -1.0531216221      -17.1778649192
 H        -8.7120513222       -1.7181562162      -14.6921867660
 H        -9.7141096837       -2.8247174193      -15.5842352277
 H       -12.0747608292        2.1194728745      -12.3710570399
 H       -13.0996026025        0.6442017110      -12.3844386703
 H       -13.8388939797        1.1532855919      -14.3421822333
 H       -12.2613595355        0.9441420987      -15.0601954657
 H       -11.7362977730        3.4891081101      -17.9848881303
 H       -12.7231865251        4.8408999269      -17.6648756310
 H       -14.3174857201        4.3734234729      -19.3953730489
 H       -13.6137223201        2.8347867419      -19.7019412633
 H        -9.9879462943        4.1365709936      -22.1853472003
 H        -9.9261424414        2.8423650549      -23.2360509033
 H        -9.9480632585        2.4947089636      -21.5606006807
 H       -14.6593113995        5.1956193181      -21.8373996386
 H       -14.5679676128        3.3357945324      -21.6192887006
 H       -14.3705810112        4.0122358176      -23.2733214686
 H       -11.9787542313        5.3613135280      -23.6215335430
 H       -11.3612831729        6.2091788246      -22.2395375528
 H       -12.9942893821        6.4375008294      -22.9151366461
 H       -16.2256750660        3.5004467358      -15.7278585779
 H       -15.5462023255        2.6269830779      -14.1878975944
 H       -15.6551135536        1.8559024512      -15.7414685009
 H       -13.3059871362        5.4145157517      -15.4976404350
 H       -14.9147343179        5.1832178926      -14.7744727470
 H       -14.8411387976        5.2601711331      -16.4720225159
 H       -12.9595818940       -1.5836165573      -12.5533680919
 H       -11.9700021901       -1.4952649931      -11.1073450475
 H       -12.0205848902       -2.8538906902      -12.3053819415
 H        -9.3356171493       -1.7290878930      -11.2439244661
 H        -8.8210988279       -1.0304118000      -12.8683974337
 H        -9.2993078537       -2.7743805674      -12.7348774303
 H        -9.2507540128        1.5102696156      -18.6686933544
 H        -8.2963089123        2.9397981245      -18.3613302120
 H        -9.8300505438        2.9234736714      -17.5370341930
 H        -6.1647707806        1.8480913967      -17.5726179724
 H        -7.0641968511        0.4489022485      -18.2309738957
 H        -6.3255780709        0.4157666806      -16.5875299497
 H       -10.9073438347        6.5594761077      -13.6440308274
 H       -10.1086752693        7.9060134189      -14.3656949327
 H       -10.3021661681        7.7687269872      -12.6634247305
 H        -6.6754880452        7.2264074750      -12.7120518668
 H        -7.9263646422        8.5057864023      -12.5619959621
 H        -7.4791933985        8.1312994325      -14.1799412083
 H        -4.8843396396        7.7224462514       -8.6423402851
 H        -3.7515863700        8.0356497120       -9.9524750655
 H        -3.3325328521        7.0994268934       -8.6455335728
 H        -3.7179731813        5.0919583362      -11.9114973970
 H        -2.4325108341        5.5125213303      -10.6369458698
 H        -3.2792854847        6.6959126266      -11.7365706936
 H        -5.7702371716       -0.5149107454       -5.9214447648
 H        -5.7328264168       -1.4398293854       -7.3750118094
 H        -6.3668351037        0.2494435518       -7.3743759564
 H        -3.6795364190        1.7387458351       -6.0400572609
 H        -2.3662738598        0.6018439631       -6.2956608844
 H        -3.5856563929        0.1917457826       -5.2125371325
 H         0.1371859334       -2.9395794003      -12.2103696547
 H         1.4806112104       -4.0839085872      -12.0877757091
 H         1.6557166218       -2.4925423145      -11.4092449981
 H         0.1945463945       -5.7484843737      -10.7286891016
 H        -1.2701394383       -4.9093173516      -11.0592657174
 H        -1.0060132452       -5.2173672397       -9.4709778828
 H         1.8647907347       -4.4135370530       -4.0722714824
 H         1.6887689687       -3.9489659668       -5.7119961115
 H         2.7348125251       -3.0366072067       -4.6123966163
 H         4.6991391666       -3.0837103249       -5.7057943068
 H         5.7146448774       -4.5680833055       -5.8111843530
 H         5.1798160258       -4.0128086319       -4.3082309507
 H         2.4031147412       -9.9134760364       -1.3480529286
 H         0.9740360276       -9.0518819370       -1.5404246046
 H         1.3730141745       -9.6031849905        0.1028102869
 H         2.7720136036       -6.1642888963        0.3533237248
 H         2.1585347960       -7.4696995147        1.1685046974
 H         1.1764038926       -6.6769362155        0.0439120623
 H         8.4651223465      -12.1459884918        0.2066092058
 H         7.0727058170      -11.5680183024       -0.6670320556
 H         7.2924693958      -11.3534947888        1.1731106919
 H         9.1987329961      -10.0876782913        1.6029138881
 H         9.3495920138       -8.4626891474        0.8447484064
 H        10.5109906421       -9.9248597896        0.5697908817
 H         9.3629420224      -11.6937361072       -6.5501655832
 H        10.0210645928      -11.6624742136       -4.9579298461
 H        10.7791714018      -10.6026129364       -6.1976812746
 H         9.2010265202       -8.8832982007       -7.2164295635
 H         7.8427528387       -8.2254021902       -6.4952575998
 H         7.6177536863       -9.8089047777       -7.3423172852
 Na        6.3724229572       -8.1236234259       -3.5934377914
 Na      -10.1192133925        3.0462414336      -13.3298971758
