232

 C         7.4314595547      -12.1920694074       -4.7213503005
 C         7.3848476946      -10.7429058583       -5.2150519003
 O         6.4257457971      -10.0555723931       -4.9894850319
 C         8.7086846213      -10.0548684728       -5.7408342521
 C         9.2151980926       -9.1731914520       -4.5989139331
 O         8.6304449444       -8.0957150969       -4.3380054764
 C        10.5701051270       -9.4972436256       -3.8260800048
 C        10.3409558329       -9.2892599170       -2.2598762789
 C         9.4254085022      -10.2567350465       -1.6078061737
 O         9.2374513092      -11.3215847318       -2.1507214321
 C         8.7463295050       -9.8860363483       -0.2323726721
 C         7.7480164162       -8.6719372536       -0.5158193685
 O         7.8668747703       -7.9714484352       -1.5003930760
 C         6.7610297875       -8.2268306039        0.5922518906
 C         5.6001770814       -7.3779485362       -0.0493833549
 C         4.6929194292       -8.3348247733       -0.9756417784
 O         5.2111927128       -9.0231945562       -1.8041792318
 C         3.0895388890       -8.2789325204       -0.8661355708
 C         2.8092353325       -7.6105792286       -2.2848304799
 O         2.6602563352       -6.3743494989       -2.1924747503
 C         2.7416787362       -8.4308103667       -3.5634715131
 C         2.6333927442       -7.3980257284       -4.7711844722
 C         3.7569625221       -6.2551820332       -4.7006639947
 O         4.9113081309       -6.5470019262       -4.3723830668
 C         3.4740599299       -4.8146149031       -5.3271948081
 C         3.3797492823       -5.0043159609       -6.8850379178
 O         3.4274660253       -6.1789022999       -7.3104768553
 C         3.4246033394       -3.7593368827       -7.8016316801
 C         2.6938294877       -4.0254160440       -9.1827906765
 C         1.2766794308       -3.4586135233       -9.0028360789
 O         0.8375722293       -3.0913673653       -7.9173658742
 C         0.3174557248       -3.2817101864      -10.2510094864
 C        -0.8127886298       -2.2576510435       -9.8052285317
 O        -0.6892752796       -1.1070903844      -10.2537697182
 C        -2.0020595795       -2.5109615832       -8.9598714924
 C        -2.3268637943       -1.2533632721       -8.1395748841
 C        -3.8119286694       -1.3555216341       -7.6878985015
 O        -4.4291020905       -2.3505231505       -7.9857299091
 C        -4.4810132846        0.0066821672       -6.9983246668
 C        -4.6320964190        0.9021174867       -8.2757870574
 O        -4.6474653736        0.4666659666       -9.4085473858
 C        -4.8135574486        2.3996144539       -8.0828894147
 C        -4.3158131852        3.2138618107       -9.2992817835
 C        -4.2873106669        4.7187857225       -8.9170476277
 O        -4.0123975084        5.1052611158       -7.8188632534
 C        -4.5423999014        5.8043433781      -10.0599215055
 C        -6.0130006738        5.7941386380      -10.6073071323
 O        -6.0776053127        5.3659212401      -11.7640458503
 C        -7.2328358534        6.1896536972       -9.8189872927
 C        -8.3727782344        6.4710206128      -10.7743856497
 C        -8.4791285804        5.6573075112      -12.0886584450
 O        -8.5858945859        4.4202133928      -12.1260977800
 C        -8.7044826865        6.4917447592      -13.4157286839
 C        -8.3256509878        5.4002419796      -14.6146561890
 O        -9.2060782383        4.8668256011      -15.2173369029
 C        -6.7453572598        5.0122104182      -14.7709511289
 C        -6.6381989543        3.8175386566      -15.9182849458
 C        -7.3919984536        2.5440366851      -15.5124505351
 O        -7.3322181999        2.2623472574      -14.3042189565
 C        -8.0360200448        1.7007124790      -16.6983767620
 C        -9.2739405402        0.7885921630      -16.2635562799
 O       -10.1037469831        1.2212874398      -15.4520154326
 C        -9.4163027783       -0.7013443481      -16.6035203780
 C        -9.6186804115       -1.4408123477      -15.2028228247
 C       -11.1591823767       -1.2206245114      -14.6610863645
 O       -12.0625811019       -1.0423946812      -15.4264803438
 C       -11.4095954315       -1.0416857285      -13.0144736807
 C       -11.4685177929        0.6211225225      -12.8680178369
 O       -10.4297247824        1.1455848817      -12.6296482756
 C       -12.8873182831        1.2967080275      -12.7224522990
 C       -13.4679749425        1.5524534772      -14.1337360871
 C       -13.0592021301        2.9661600773      -14.6176134459
 O       -12.1678880491        3.6862939336      -14.1140218267
 C       -14.0052522972        3.6001561817      -15.6651459912
 C       -13.3078100492        3.1823737668      -16.9727899686
 O       -13.4764758375        1.9902011076      -17.2252749629
 C       -12.6390399450        4.1293240205      -17.9756685548
 C       -13.2164172922        3.7980402793      -19.2968371761
 C       -12.5385543302        4.5452504206      -20.4278110163
 O       -11.7629344492        5.4642219208      -20.2007603088
 C       -12.9333868070        4.2025422656      -22.0153357268
 C       -12.2015637166        2.9113852910      -22.2053661980
 O       -12.7470441517        1.8810530994      -21.9176557158
 C       -10.7720837151        2.9175455415      -22.7852523518
 C       -14.5033629183        3.9184062300      -22.1118631361
 C       -12.5088847377        5.3948139814      -22.9410975499
 C       -15.4155896620        3.0468896631      -15.6199248162
 C       -14.0118322670        5.1794220594      -15.5813719570
 C       -12.6875319645       -1.7313472134      -12.4601892228
 C       -10.1239389916       -1.5009437847      -12.2141682913
 C        -8.8011764011        2.6913963064      -17.6875480842
 C        -6.8696779697        0.9547266801      -17.3357244982
 C       -10.2336669475        6.8292397313      -13.5785593497
 C        -7.7466387048        7.6906970653      -13.4168436915
 C        -4.2199999427        7.0703060597       -9.2029993250
 C        -3.6040871241        5.5750312569      -11.2538017508
 C        -5.8369523155       -0.2420945329       -6.3580397754
 C        -3.4629639000        0.4800330866       -5.8907955447
 C         1.1064218359       -2.7594482135      -11.4505395964
 C        -0.3562764596       -4.6449762364      -10.3645439584
 C         2.0180049219       -4.2387231187       -4.9345997943
 C         4.6268434399       -3.8756074049       -4.9324584522
 C         2.6505120695       -9.7951089193       -0.9179555835
 C         2.4818096536       -7.6138297990        0.3458277253
 C         7.9952025518      -11.1056983875        0.3311634500
 C         9.8305359681       -9.4810860816        0.8353598521
 C         9.7039981053      -11.0967857369       -6.2921886745
 C         8.3276813086       -9.0569833698       -6.8950907696
 H         7.6400123708      -12.9473979460       -5.4947144349
 H         6.4494940430      -12.3435585504       -4.2741923467
 H         8.1773636769      -12.1664017232       -3.8825147351
 H        11.2366266401       -8.8113637056       -4.3057727791
 H        10.8574821591      -10.4228697481       -4.2640989566
 H         9.9485059893       -8.2806215545       -2.0733116032
 H        11.3365709792       -9.3973360113       -1.9807942787
 H         7.3574865193       -7.6328468338        1.3578942910
 H         6.3709783375       -9.1369471264        1.1712213808
 H         6.0963951366       -6.5668554051       -0.6923169758
 H         5.0477549576       -6.9201088919        0.7600414581
 H         1.9889806162       -9.2252670653       -3.5638371654
 H         3.6662395002       -8.9863122611       -3.7433192383
 H         1.7346636614       -6.9266567514       -4.5810022209
 H         2.6674165299       -7.9499633680       -5.7538714626
 H         4.4708542615       -3.5455526339       -8.0216319265
 H         2.9373350849       -2.9879442680       -7.3020674673
 H         2.6017463057       -5.1385409229       -9.2841683681
 H         3.0586136492       -3.5133619206      -10.0545281705
 H        -1.8980906101       -3.3780026023       -8.3383489185
 H        -2.7802690401       -2.6651005074       -9.6049820760
 H        -1.9900111269       -0.4446207044       -8.8293221141
 H        -1.5907505439       -1.2050140184       -7.3561799281
 H        -4.3170632525        2.6700362725       -7.0779701181
 H        -5.8074127801        2.7978882251       -7.9191432035
 H        -4.9658453892        3.0738471942      -10.1236813970
 H        -3.3462189421        2.8362130039       -9.7164783560
 H        -6.9994336266        7.1409366947       -9.2117355893
 H        -7.5423426999        5.4214632793       -8.9850055404
 H        -8.1906047506        7.5441926377      -10.9454608563
 H        -9.2755496622        6.4550752255      -10.2216103055
 H        -6.4193223728        4.8233352386      -13.6625071137
 H        -6.3899758365        5.9737557112      -15.0905828384
 H        -5.6846778768        3.5021382740      -16.1384628895
 H        -7.1271992543        4.2568522721      -16.8570306822
 H        -8.5687860307       -1.1627125716      -17.0219406456
 H       -10.1809083657       -0.8513349329      -17.3940386872
 H        -8.9319273371       -0.9490359180      -14.5292184859
 H        -9.4447325202       -2.4549691948      -15.2912707681
 H       -12.8591754440        2.1871368663      -12.1505630305
 H       -13.6149419862        0.6802291456      -12.2114460524
 H       -14.5736615750        1.4467147563      -13.8727362613
 H       -13.2126947607        0.8413280539      -14.9265516546
 H       -11.5838723197        3.8383385927      -17.9994584339
 H       -12.7303035854        5.1598874352      -17.9103448686
 H       -14.3093545700        4.0171438481      -19.3321524070
 H       -13.2293128831        2.7180386979      -19.4273329550
 H       -10.1823503229        1.9416643205      -22.8207696848
 H       -10.1355586544        3.5735657827      -22.2747546117
 H       -10.8154624031        3.3572299441      -23.7377044382
 H       -15.0644718147        4.7059832611      -21.6590665278
 H       -14.6047363742        3.0208788388      -21.4699000192
 H       -14.8068027808        3.6689084044      -23.1199472747
 H       -13.1204993782        5.6760650667      -23.8083804682
 H       -11.5354333842        5.2162769602      -23.5050790617
 H       -12.4563276638        6.3547551505      -22.3506960864
 H       -16.2518193433        3.7273777187      -15.9306147629
 H       -15.7672843136        2.7429417348      -14.6483004409
 H       -15.4825642718        2.1107301735      -16.2144193572
 H       -12.9455442166        5.4842597548      -15.5183584055
 H       -14.4255856076        5.4543089986      -14.6147433237
 H       -14.5156467606        5.5920370317      -16.4070050800
 H       -13.5036090221       -1.1717112902      -12.9232629792
 H       -12.7329580328       -1.6467198004      -11.3659314449
 H       -12.6989496791       -2.7532565738      -12.6470147064
 H       -10.4074945272       -1.6113611987      -11.1821618859
 H        -9.4101571349       -0.7056192347      -12.2959103619
 H        -9.8449465264       -2.5096078365      -12.7190713830
 H        -9.3011930349        2.1649045657      -18.4612940186
 H        -8.0954520670        3.2945850512      -18.2185161036
 H        -9.5617930803        3.3228817915      -17.1668735998
 H        -6.1636091111        1.6581395702      -17.7942834185
 H        -7.2967923945        0.3217877632      -18.1092385876
 H        -6.4154266517        0.3280243927      -16.6175601228
 H       -10.7678748215        5.8856230246      -13.8888588902
 H       -10.4638693070        7.5354728585      -14.3746392041
 H       -10.7389493582        7.2167815067      -12.7083672870
 H        -6.7431545634        7.5851102144      -12.9689293795
 H        -8.3218459022        8.4337855174      -12.8580316927
 H        -7.5946359828        8.1079919981      -14.4555066519
 H        -5.0030293488        7.2901966060       -8.4680400019
 H        -4.1916425547        7.9780765572       -9.7382833798
 H        -3.4107803954        6.9802760908       -8.5511537323
 H        -3.7931984255        4.7149240860      -11.8441621394
 H        -2.5481972601        5.5173483465      -10.8766783553
 H        -3.6530722667        6.5043901773      -11.9095360219
 H        -6.0738149998       -1.2689885822       -6.5095318091
 H        -6.5640101516        0.4235073667       -6.7501353679
 H        -5.7592005698       -0.0308223477       -5.2602795267
 H        -3.1064502937       -0.3440189574       -5.2926284805
 H        -4.0068345635        1.0066536141       -5.2168507173
 H        -2.5850404639        0.9579562752       -6.1506977494
 H         0.4098033720       -2.7019832267      -12.3302987298
 H         1.9491672632       -3.2962735228      -11.8197622081
 H         1.3572001873       -1.7572479264      -11.2055057640
 H         0.3791479717       -5.4509809938      -10.2349003532
 H        -0.8928252134       -4.8020290051      -11.1929512061
 H        -0.9369071502       -4.9122251323       -9.4834197533
 H         2.1579585912       -3.6999234231       -4.0084830907
 H         1.1774750726       -4.9375812436       -4.7399573697
 H         1.6166050413       -3.5100563552       -5.5587613548
 H         4.7431734194       -3.0031824281       -5.5854708564
 H         5.6074199447       -4.3152360817       -5.0134753750
 H         4.3476209970       -3.5559001357       -3.9747297145
 H         3.1367854733      -10.4505444991       -1.6073632530
 H         1.6241588445       -9.7484696248       -1.2010731199
 H         2.7063728738      -10.2326755987        0.0514832302
 H         2.7991865922       -6.6175771432        0.4758221459
 H         2.6589605407       -7.9575274588        1.3841404969
 H         1.4592979799       -7.5038836122        0.1948199054
 H         8.5842206661      -12.0730674792        0.3325961674
 H         7.0828812288      -11.3176490947       -0.3133429306
 H         7.6650223567      -10.8252745397        1.2952586654
 H         9.4234410198       -8.9983090306        1.7212991294
 H        10.5183954009       -8.9299693734        0.2079703363
 H        10.5316517372      -10.2653741624        1.0638651649
 H         9.3240681945      -11.5489399800       -7.2143296753
 H         9.9437006445      -11.9070858007       -5.5942032424
 H        10.6807068127      -10.6313574631       -6.6090447033
 H         9.0466050355       -8.3442636923       -7.1371827576
 H         7.3566358078       -8.6213805994       -6.7099684718
 H         8.2124081755       -9.5717977387       -7.8530929845
 Na        6.4929107668       -8.2531580977       -3.6072554670
 Na       -9.9881608558        3.1211179439      -13.4486341405
