232

 C         7.2447997577      -12.3531720597       -5.3399745042
 C         7.3185483285      -10.8950499792       -5.1798792701
 O         6.5264379426      -10.2220424685       -4.5042749413
 C         8.5900771273      -10.1464427560       -5.9111488016
 C         9.3193545119       -9.4165321426       -4.8105655067
 O         8.8261390155       -8.3842978685       -4.4257893352
 C        10.6577148736       -9.9222837564       -4.1022863660
 C        10.6462846879       -9.3286468394       -2.6060881670
 C         9.4180947520       -9.9865044108       -1.8815554574
 O         8.7388023853      -10.6844244267       -2.6064734095
 C         8.9782780344       -9.5330192339       -0.4103035551
 C         7.9563738170       -8.3308146883       -0.6379664360
 O         7.8808323035       -7.6587230431       -1.6491388576
 C         7.0927922030       -7.8878115033        0.5839475006
 C         5.6640574063       -7.5859964893        0.1686540623
 C         5.0518788311       -8.6709872828       -0.7153339715
 O         5.7512608668       -9.5129952225       -1.3592326126
 C         3.4851156128       -8.7389528029       -0.8556064708
 C         3.3727199464       -7.9726850254       -2.2232978956
 O         3.3873765981       -6.7639678320       -2.1702271806
 C         3.5043744334       -8.6438841691       -3.6634483973
 C         3.3793661290       -7.6064580297       -4.7448392123
 C         4.2134992674       -6.3082946034       -4.5975121389
 O         5.3330684306       -6.3502752496       -4.1995905437
 C         3.6591372889       -4.9806379049       -5.2150941766
 C         3.4676403809       -5.1571953054       -6.8055564825
 O         3.2424551166       -6.2297830849       -7.3606658610
 C         3.4475559506       -3.7760644883       -7.5636176227
 C         2.7464368327       -3.7337507614       -8.8866352047
 C         1.2713287198       -3.0896725869       -8.7762532773
 O         0.8755948182       -2.6545650315       -7.6918148604
 C         0.3948917659       -3.1020188972      -10.0147647580
 C        -0.9121444162       -2.2534234653       -9.6420775933
 O        -1.0152580055       -1.1777874392      -10.2230565990
 C        -2.0564154345       -2.7351763638       -8.7381015295
 C        -2.5896258860       -1.4971721981       -8.0769601913
 C        -4.0884112639       -1.4053641056       -7.8375931074
 O        -4.8386666870       -2.3263175298       -8.0389703820
 C        -4.6967109724       -0.0963886203       -7.0858413896
 C        -4.8918796265        1.0137387307       -8.1503877661
 O        -5.1329626946        0.7569962695       -9.2946392323
 C        -4.8686056905        2.5178223961       -7.7210446437
 C        -4.1746509260        3.3355377637       -8.7642035811
 C        -4.4990458657        4.8445274236       -8.6910696991
 O        -5.0689564800        5.3160592321       -7.7396870999
 C        -4.4090656063        5.7451320545      -10.0283356552
 C        -5.6241151324        5.4163327483      -10.9737393883
 O        -5.4153157574        5.2162564082      -12.1533137001
 C        -7.0232792793        5.1929482581      -10.2601350116
 C        -8.1457597584        6.0704902596      -10.7605145191
 C        -8.6707198183        5.5171002851      -12.0236981684
 O        -9.1410459697        4.4464167828      -12.1950783805
 C        -8.5743243033        6.2845072576      -13.4786973787
 C        -8.0693050328        5.2512262574      -14.4230253110
 O        -8.9464973774        4.6394923261      -15.0205574688
 C        -6.6211082112        5.0647778245      -14.9741435394
 C        -6.5275151595        3.8734902230      -15.9168299791
 C        -7.5419557589        2.7210965894      -15.5109181062
 O        -7.7370229734        2.3766207317      -14.3571916612
 C        -8.1208683141        1.8508291953      -16.6863842081
 C        -9.2983424209        0.9806794552      -16.0877832269
 O       -10.2839944028        1.6428401725      -15.7485698634
 C        -9.2550751314       -0.5258547512      -15.9930454323
 C        -9.9399112034       -1.1397026659      -14.7680512479
 C       -11.4478836439       -0.9264352518      -14.5578488951
 O       -12.3206509331       -0.7816580118      -15.4268141492
 C       -11.8171080457       -1.0517835177      -13.1186387329
 C       -11.7052775542        0.4729701748      -12.6663929025
 O       -10.5629657415        0.9253928533      -12.5814511650
 C       -12.9530360715        1.3541811102      -12.6035447942
 C       -13.3532949175        1.7612095042      -14.0326806922
 C       -12.9970183160        3.1429904755      -14.4203495022
 O       -12.2603410691        3.8662121354      -13.8084798404
 C       -13.7844406784        3.9167991618      -15.5057351917
 C       -13.3058766345        3.4376610721      -16.9475823521
 O       -12.9236190508        2.2883755899      -17.1575995360
 C       -13.4022546414        4.3923144514      -18.1003537107
 C       -13.6048213054        3.7208511954      -19.5283240831
 C       -12.8168278705        4.4830585698      -20.5634082240
 O       -12.1296499480        5.4664445313      -20.2946858027
 C       -13.0304300464        4.1073469557      -22.1067206795
 C       -12.3215992499        2.7616390270      -22.3160771442
 O       -12.5955740670        1.8268406299      -21.5856768576
 C       -11.3774923454        2.5913571137      -23.5756861665
 C       -14.4935496787        3.8560653535      -22.3897743730
 C       -12.6153773055        5.3916277070      -22.8417002269
 C       -15.2798337097        3.6509176853      -15.4361100994
 C       -13.4884939055        5.4456096977      -15.3542256118
 C       -13.2949060977       -1.5108588395      -13.0855933762
 C       -10.9505687181       -1.9136036975      -12.2497962370
 C        -8.7805647306        2.8389077824      -17.7489654498
 C        -6.9992360723        1.0566160905      -17.3679106770
 C       -10.1141965416        6.6330284471      -13.8144505842
 C        -7.7139102027        7.5862830447      -13.5328957678
 C        -4.4774130414        7.2243904995       -9.6712935237
 C        -3.0082451390        5.6533233031      -10.8472574630
 C        -6.0673103591       -0.5184919276       -6.5669815662
 C        -3.6775863156        0.2301905113       -5.9934021284
 C         0.9785122859       -2.4250429194      -11.2671313649
 C         0.0738151085       -4.5492304132      -10.5126460059
 C         2.1842899372       -4.7086367738       -4.7510253330
 C         4.5247620684       -3.7746684531       -4.7741894846
 C         3.0233859941      -10.1761835566       -0.8969862181
 C         2.7480176549       -7.9417512575        0.3006819745
 C         8.3494606208      -10.7567842620        0.3025153411
 C        10.2093739389       -8.9288250235        0.4350156393
 C         9.4469136583      -11.0437505494       -6.7464073334
 C         7.9830562528       -9.0561073605       -6.7986112261
 H         7.0097179705      -12.5467597910       -6.4179976961
 H         6.5146633767      -12.8148329494       -4.5696245300
 H         8.2427194491      -12.6953084911       -5.1291695928
 H        11.4484414679       -9.4046648211       -4.6025301617
 H        10.7452711103      -10.9852209038       -4.3767326981
 H        10.4575640000       -8.2225402207       -2.5765264735
 H        11.7017793677       -9.6227907970       -2.3328633349
 H         7.6561178586       -7.1634861712        1.1386357248
 H         7.0319628279       -8.6680060155        1.2974198713
 H         5.5855785089       -6.7332209905       -0.4172774278
 H         5.0732943203       -7.2733595110        1.0316649792
 H         2.6922203197       -9.3536305875       -3.9001964200
 H         4.4131425119       -9.1681116627       -4.0185907679
 H         2.2814023820       -7.2965729352       -4.7994308297
 H         3.7092933530       -8.1846745246       -5.5920078393
 H         4.5220069007       -3.5305503477       -7.7289891713
 H         3.1172910007       -2.9608504723       -6.7847889909
 H         2.6676437364       -4.7576795198       -9.2429871134
 H         3.3048620557       -3.2317165147       -9.7205155090
 H        -1.7800755567       -3.4253986555       -7.9797750773
 H        -2.9019522199       -3.2843310986       -9.1908548012
 H        -2.1640207951       -0.5803302082       -8.4996712456
 H        -2.1724675387       -1.3954655411       -7.0081907574
 H        -4.4500215567        2.6490373053       -6.7937228505
 H        -5.9269572694        2.7784521221       -7.6727222914
 H        -4.4554259073        2.8446221377       -9.7701364776
 H        -3.0814680187        3.2623447074       -8.7454405295
 H        -6.9893829814        5.3547800050       -9.2025708662
 H        -7.3185272720        4.1406387663      -10.4484869101
 H        -7.7953607783        7.0890582289      -10.7211609467
 H        -9.0523302944        6.0088380189      -10.0404387169
 H        -6.0501717101        4.8330488762      -14.1203304265
 H        -6.3063649851        6.0284139910      -15.4806589336
 H        -5.5266552764        3.3837020590      -15.9576836152
 H        -6.9150926374        4.1960350869      -16.9000781807
 H        -8.2549886863       -0.9109267273      -16.0433568099
 H        -9.8115966374       -0.9762191306      -16.8585928411
 H        -9.3611733503       -0.9012986469      -13.8542213465
 H        -9.8973713773       -2.2954582806      -14.7057074323
 H       -12.9414187538        2.2200815990      -11.9602635659
 H       -13.6666293009        0.7142048988      -12.1340784539
 H       -14.4224714873        1.6511537662      -14.1534064068
 H       -12.8932539889        0.9878166416      -14.7410250940
 H       -12.4732085554        4.9307184155      -18.0823600641
 H       -14.1996481388        5.1770167049      -17.9884377516
 H       -14.6941632838        3.6730333824      -19.7348478219
 H       -13.3120904342        2.6281903538      -19.6375545569
 H       -10.7378183089        1.6885814389      -23.4918108804
 H       -10.7839963174        3.4455860105      -23.8591121446
 H       -11.9663103792        2.4169834265      -24.4846413696
 H       -15.0183792744        4.7505373086      -22.2157861187
 H       -14.9806406239        3.0103934061      -21.9166860747
 H       -14.6004679437        3.7993658214      -23.4468193797
 H       -12.5442514218        5.2486990059      -23.9645067103
 H       -11.7737676958        5.8732345996      -22.4430987113
 H       -13.3835691563        6.1355552105      -22.6599677053
 H       -15.8591329912        4.3973842966      -15.9802956071
 H       -15.7170333857        3.7728948464      -14.4793586522
 H       -15.7010477500        2.7628143992      -15.8622380645
 H       -12.5900874853        5.6857750461      -15.8687776501
 H       -13.5111020778        5.6291212577      -14.2778400700
 H       -14.3001368991        6.0071037758      -15.8242652923
 H       -13.9187587987       -1.0349393194      -13.8488450828
 H       -13.7286304473       -1.4261692313      -12.0883213658
 H       -13.1858035151       -2.5880064763      -13.3973677046
 H       -11.5595379319       -2.1356573805      -11.4059956446
 H       -10.0390762548       -1.4261739437      -12.0140462942
 H       -10.7595478009       -2.8342517215      -12.8569643847
 H        -9.2220530449        2.2356242606      -18.4507841199
 H        -8.0250933028        3.4729603383      -18.2424383303
 H        -9.5224924440        3.4618752770      -17.3416884524
 H        -6.4062167250        1.6754633275      -17.9950704851
 H        -7.3942654528        0.3020742919      -17.9853171804
 H        -6.2931668726        0.6192412358      -16.6312763693
 H       -10.7314034461        5.8163271401      -14.0635989298
 H       -10.1037331883        7.3509554778      -14.7262699642
 H       -10.5628995797        7.2575310124      -12.9981548674
 H        -8.3026428231        8.4668811605      -13.3084182628
 H        -7.0865556113        7.7774195967      -14.4391976499
 H        -6.9778074286        7.6077755489      -12.6677541114
 H        -5.3027915606        7.5312954132       -9.0468599808
 H        -4.4529103990        7.8979468135      -10.4686337793
 H        -3.5512435228        7.4782891849       -9.1537082133
 H        -2.6549100072        4.6234928136      -11.1263546869
 H        -2.2048138753        6.0257866449      -10.2579168980
 H        -2.9779794155        6.3424408191      -11.7095955905
 H        -6.7804521875        0.1146115230       -7.0068533946
 H        -6.1659532357       -0.6685616528       -5.4710755440
 H        -6.2234659104       -1.5035157942       -6.9858121889
 H        -3.3164509383       -0.7161789150       -5.6429020283
 H        -4.1366688284        0.7293428399       -5.1980210179
 H        -2.9750525460        0.9347709861       -6.3555142997
 H         0.2868998198       -2.2444544594      -12.0551094295
 H         1.8679470589       -2.9725655971      -11.7224651346
 H         1.3852192177       -1.4627982533      -11.0078454602
 H         1.0114070927       -5.0543348093      -10.6579391641
 H        -0.3173344035       -4.5173708632      -11.5483683094
 H        -0.6919350440       -5.0686349988       -9.9709299394
 H         2.2501326534       -4.5436382258       -3.7041442362
 H         1.4240340220       -5.4822721900       -4.7953960410
 H         1.7690418017       -3.8469105317       -5.2179194865
 H         4.1419127121       -2.8199864638       -5.1246393238
 H         5.5972959240       -3.9373489345       -4.9204201589
 H         4.4613107689       -3.7361677147       -3.6466645096
 H         3.6346535405      -10.7274524948       -1.6403774720
 H         1.9722376510      -10.2774534432       -1.2038178362
 H         3.0101701082      -10.6111088972       -0.0030654307
 H         3.0430831505       -6.9033046433        0.4198125693
 H         2.6460458080       -8.4024316741        1.2675773892
 H         1.6995490611       -7.8294632571        0.0183546713
 H         9.0727024076      -11.5489935377        0.4099942641
 H         7.3693527149      -11.0309601386       -0.0781104536
 H         8.0837402952      -10.3321932789        1.3151648569
 H         9.9091250694       -8.1269278689        1.0995833194
 H        10.9665994249       -8.3376714952       -0.0957390117
 H        10.5790621316       -9.6662586002        1.0986825603
 H         8.9129563631      -11.5367706326       -7.5687669414
 H         9.9333441161      -11.8852077399       -6.2006321110
 H        10.3313747551      -10.5387099069       -7.1146180841
 H         8.6112112095       -8.1803195828       -6.9501270170
 H         7.1123651670       -8.6181363002       -6.3346102970
 H         7.5912087213       -9.3972283136       -7.6880042505
 Na        6.5294692223       -8.1410291465       -3.3715211387
 Na      -10.0559239325        2.8832213942      -13.4586459696
