232

 C         7.2050610069      -12.4134059043       -5.4714638493
 C         7.3997455423      -10.9393074784       -5.1892974709
 O         6.5862225358      -10.3196817527       -4.5317069122
 C         8.5355269282      -10.1405304981       -5.9497129815
 C         9.3664739641       -9.4020933755       -4.7844396418
 O         8.8832617948       -8.3513283200       -4.3535012346
 C        10.7160645062       -9.9701786532       -4.1165333383
 C        10.7103901061       -9.4085944733       -2.7264697555
 C         9.4330931520       -9.8500092616       -2.0671776308
 O         8.6586081213      -10.6672210735       -2.5163624784
 C         9.1151267129       -9.3642427995       -0.5460777366
 C         8.0742087205       -8.2676154231       -0.6608043532
 O         7.9381466838       -7.4755980014       -1.5851168848
 C         7.1396126221       -7.9478372965        0.5861321971
 C         5.6863516161       -7.5835511255        0.1972137516
 C         5.0502482720       -8.7214522531       -0.5848449637
 O         5.7700881840       -9.5277184530       -1.1482166790
 C         3.5205639764       -8.7922715909       -0.9044066125
 C         3.4478166197       -8.0317855784       -2.2597684679
 O         3.2814395352       -6.7939316470       -2.2171250446
 C         3.6515485663       -8.7510580918       -3.5746074718
 C         3.4396235155       -7.6326438154       -4.7081048170
 C         4.2501749094       -6.3661703116       -4.5780158969
 O         5.4132651925       -6.2850342609       -4.1767398153
 C         3.6642321781       -5.0117894533       -5.1090385638
 C         3.4512497397       -5.1325366271       -6.7245680902
 O         3.2554415478       -6.2119084308       -7.2824364942
 C         3.4758138400       -3.7875258201       -7.5480819930
 C         2.7548426113       -3.6015724805       -8.8514706006
 C         1.2605224923       -3.0779097284       -8.7997971044
 O         0.7778493544       -2.6544049123       -7.7639999171
 C         0.4430287937       -3.0621273907      -10.1565774280
 C        -0.9715881340       -2.3078906007       -9.6905977371
 O        -1.0763566987       -1.1935462844      -10.1736893174
 C        -2.0586325705       -2.6866048345       -8.7211776551
 C        -2.6301175348       -1.3560300123       -8.0429385585
 C        -4.1732994827       -1.3607777237       -7.8150960018
 O        -4.8885731924       -2.3321467231       -8.1471093683
 C        -4.7781707258       -0.1282031740       -6.9981345593
 C        -4.8875130767        1.0846871166       -8.1091260917
 O        -4.9922745014        0.8077810902       -9.3136071585
 C        -4.8825544357        2.5504692575       -7.6980581983
 C        -4.0428210533        3.3622616397       -8.7460790597
 C        -4.4869616104        4.8712021363       -8.6710012936
 O        -5.0647516145        5.2482985961       -7.6867499638
 C        -4.3214618398        5.7739028200       -9.9129460156
 C        -5.5578622401        5.3718510224      -10.9054158727
 O        -5.3922737198        5.2561791621      -12.1256754420
 C        -6.9111225555        5.1135180654      -10.2801164399
 C        -8.1423901888        5.9667998477      -10.8168269354
 C        -8.7103612855        5.5377497197      -12.2103394403
 O        -9.2546777817        4.4678689834      -12.2232537164
 C        -8.6193762527        6.4064184868      -13.5211408321
 C        -8.2077889487        5.2850805129      -14.6086377095
 O        -9.0214435170        4.4738841098      -15.0138330927
 C        -6.7373549725        5.1355046682      -15.0027807029
 C        -6.4945971997        3.7979868354      -15.7973394165
 C        -7.5821451289        2.6675928630      -15.5792999448
 O        -7.7192983342        2.3394963820      -14.3439633410
 C        -8.1742573150        1.8699104688      -16.7677247211
 C        -9.3312030198        1.0982367361      -16.0806963393
 O       -10.2687659756        1.7375852145      -15.6601501909
 C        -9.1472296577       -0.3774233957      -15.9367173355
 C        -9.9579903201       -1.1983124115      -14.9045008568
 C       -11.4778087158       -0.9485231038      -14.6707890978
 O       -12.2479386882       -0.8888351103      -15.5426880375
 C       -11.9603424559       -1.0017086199      -13.0146453923
 C       -11.7435170508        0.4307110458      -12.6802496397
 O       -10.5940234671        0.8223123288      -12.5589651815
 C       -12.9309661770        1.4319993542      -12.6285773315
 C       -13.3468614108        1.8143879756      -14.1151586946
 C       -13.0037385301        3.3027580383      -14.3410789047
 O       -12.0948638479        3.8557098614      -13.7415235128
 C       -13.8171277722        4.0460732479      -15.5326167778
 C       -13.3645888604        3.4911305418      -16.9670109504
 O       -12.8997213499        2.3725455961      -17.0871527743
 C       -13.6364898230        4.4936481311      -18.1584057529
 C       -13.5686148239        3.6876865682      -19.4904182147
 C       -12.9046316294        4.4876460254      -20.5188825603
 O       -12.1582472098        5.4252434091      -20.3062058421
 C       -13.1082064029        4.1665386409      -22.1070793972
 C       -12.2802769847        2.7199011767      -22.3938292208
 O       -12.4824874759        1.8367464499      -21.6065255414
 C       -11.4836601606        2.4757786354      -23.6170913944
 C       -14.6253576753        3.8139371181      -22.3643834089
 C       -12.6007079286        5.4394362721      -22.8572799303
 C       -15.3223503299        3.6900663979      -15.4489920147
 C       -13.3835363297        5.5536690808      -15.3908312438
 C       -13.4919592672       -1.5575154588      -13.0786224980
 C       -11.0678823216       -1.8932472613      -12.1471267328
 C        -8.8715664366        2.7567092013      -17.8971079416
 C        -7.1119518444        0.9589598522      -17.3586585922
 C       -10.0560941627        6.8655000579      -13.7855766817
 C        -7.6419274988        7.5912630969      -13.5368882173
 C        -4.4509309669        7.2614359756       -9.5107714095
 C        -3.0551251959        5.4816200999      -10.7249627188
 C        -6.1582009343       -0.6110422914       -6.4620662196
 C        -3.8256835863        0.2499388312       -5.7491866282
 C         1.0892432662       -2.3750857439      -11.3517355270
 C         0.1528384971       -4.5293421066      -10.4862599459
 C         2.1765190474       -4.7347353262       -4.6540556640
 C         4.6307168158       -3.9025373243       -4.7929721590
 C         3.0998295600      -10.2867324201       -0.8966851198
 C         2.6779800917       -7.9921472969        0.0856177671
 C         8.5107937197      -10.6051660107        0.1459772024
 C        10.2711439691       -8.9730381546        0.3792038728
 C         9.4069295981      -11.1008603710       -6.7753035281
 C         7.7569997529       -9.1137237049       -6.7924943644
 H         6.7612518509      -12.3315930386       -6.4970220572
 H         6.4642538845      -12.7526563184       -4.7755018794
 H         8.1068158727      -13.0828601727       -5.4895634748
 H        11.6286603222       -9.6212168617       -4.7383977574
 H        10.6043297051      -11.0830063433       -4.2574117487
 H        10.6840570158       -8.2415916888       -2.6079558383
 H        11.5798045787       -9.8611882404       -2.2650398734
 H         7.6028199721       -7.1739730778        1.0889677694
 H         7.1314770325       -8.7020976973        1.3453175761
 H         5.6911981239       -6.6913442545       -0.4339538786
 H         5.1195515957       -7.2023312087        1.0116204115
 H         2.9171879017       -9.5533252291       -3.7243094620
 H         4.6664494529       -9.1999350942       -3.7558449060
 H         2.4075384836       -7.3407630621       -4.7123528274
 H         3.7393303423       -8.1595780340       -5.6695524988
 H         4.5678112305       -3.5520779084       -7.7691815942
 H         3.2128377993       -2.9979162129       -6.7854948032
 H         2.8380778307       -4.5096080073       -9.4764871955
 H         3.2826109100       -2.8755396665       -9.4858369645
 H        -1.8538494178       -3.5201779513       -7.9189854767
 H        -2.9296753226       -3.2128768463       -9.2995404861
 H        -2.3696617133       -0.5535747347       -8.7237185800
 H        -2.0681897257       -1.0165201129       -7.1112322314
 H        -4.4166119630        2.5855745496       -6.6624665046
 H        -5.8781604531        2.9184651272       -7.6874403593
 H        -4.1471591788        2.8150813859       -9.6960691168
 H        -2.9494756011        3.4986325268       -8.5709203159
 H        -6.8860281630        5.2534562516       -9.2290264851
 H        -7.1746653985        4.1362205144      -10.4916655636
 H        -7.9640856769        7.0510873764      -10.6934678490
 H        -8.9870241677        5.6955899016      -10.1124569238
 H        -6.1412711044        5.1060906388      -14.0328885437
 H        -6.5284399511        5.9630897509      -15.6034873270
 H        -5.5368816497        3.3564671638      -15.6836803587
 H        -6.7839964244        4.0847136326      -16.8739779592
 H        -8.1690816721       -0.6155562463      -15.6760620136
 H        -9.3464588857       -0.8097203251      -16.9747888995
 H        -9.4131655078       -0.9432041542      -13.9284957152
 H        -9.8026414481       -2.3083719643      -14.8983264449
 H       -12.7133605157        2.3780948255      -12.1046573050
 H       -13.7543390567        0.9701601170      -12.0067072298
 H       -14.3519018414        1.4803569683      -14.3456550220
 H       -12.7003669643        1.3756100316      -14.9007056923
 H       -12.7914782503        5.2428435361      -18.1564611644
 H       -14.5511158981        5.0912558150      -18.0786245698
 H       -14.5718153690        3.3050093529      -19.7756397025
 H       -13.0081809026        2.7433607757      -19.3071910536
 H       -10.8501715078        1.5348656242      -23.3487802771
 H       -10.8494173416        3.2886939185      -23.9239020499
 H       -12.0520994880        2.2108198096      -24.5162112036
 H       -15.2716504045        4.6347201513      -22.1344890820
 H       -14.9365644389        2.8976129777      -21.7804849753
 H       -14.8521619334        3.5588411682      -23.4016140776
 H       -13.0248960332        5.4279603656      -23.8130007962
 H       -11.5024499868        5.4384695244      -22.9258969615
 H       -12.8140840100        6.3454035268      -22.3482435290
 H       -16.0644932793        4.4765252994      -15.5686752616
 H       -15.5837637690        3.2908228203      -14.5254657048
 H       -15.7501495341        2.9758928672      -16.1476223806
 H       -12.2684824834        5.5293034527      -15.4729777416
 H       -13.7667902895        5.8676270681      -14.4069434585
 H       -13.7628063294        6.1762307594      -16.1532784922
 H       -14.0571061020       -1.0123929737      -13.9026134843
 H       -14.0591273418       -1.4799046981      -12.0970779160
 H       -13.4131590384       -2.5614104179      -13.4479507670
 H       -11.6123542014       -2.0088988183      -11.2567655981
 H       -10.0750858549       -1.5697072408      -12.0246430465
 H       -11.1187465375       -2.8749086471      -12.6923000712
 H        -9.2107001283        2.0307174432      -18.6038491863
 H        -8.2712539355        3.4648867410      -18.3860303092
 H        -9.7723416094        3.2946041677      -17.4692416790
 H        -6.4398140559        1.4327085182      -18.0638607903
 H        -7.6550149822        0.2451436267      -17.9684304118
 H        -6.5096581017        0.4292135210      -16.6431805993
 H       -10.5707698471        5.9144446357      -14.1696200346
 H       -10.1361753579        7.6069155804      -14.6070310118
 H       -10.6068392719        7.2605468323      -12.9275759163
 H        -8.1019912705        8.4614407846      -13.0880559108
 H        -7.4780075407        7.8516452112      -14.5891575022
 H        -6.6179841173        7.5274141758      -13.0835400557
 H        -5.5094350315        7.4185198669       -9.1895676586
 H        -4.2294914004        8.0162523571      -10.2224109930
 H        -3.8048493243        7.5489033808       -8.7060601678
 H        -2.9202053739        4.5147486208      -11.1055018449
 H        -2.1330057267        5.7541307951      -10.1824903017
 H        -3.0603278695        6.2225518824      -11.5732688167
 H        -6.8116714920        0.2020303497       -6.5250693111
 H        -6.0745415832       -1.0094681948       -5.4487367464
 H        -6.5573626269       -1.4853463334       -7.0515155949
 H        -3.1597811404       -0.6564596166       -5.5692111689
 H        -4.4388863929        0.2576109788       -4.8368169045
 H        -3.4219729815        1.2583777624       -5.8228596846
 H         0.4229606286       -2.3122306349      -12.2770282028
 H         2.0171746552       -2.8934896356      -11.6761055300
 H         1.4042896054       -1.3542699500      -11.1829854311
 H         1.0830086163       -5.0881142422      -10.7924101876
 H        -0.4195162615       -4.5724781835      -11.3510000078
 H        -0.5638988499       -4.9696625457       -9.7537765572
 H         2.1324659255       -4.3379432201       -3.6504549456
 H         1.5348086768       -5.6458136866       -4.5160256439
 H         1.6606615882       -4.1191746703       -5.3193706486
 H         4.2756627820       -2.8716571438       -5.0644456068
 H         5.6876258527       -4.1694768685       -4.9973947693
 H         4.6831800962       -3.9185716240       -3.6953747241
 H         3.7862786454      -11.0040180762       -1.3592610868
 H         2.1283739074      -10.3586488704       -1.4041935605
 H         2.7685792361      -10.6134192908        0.1287166300
 H         3.1075685341       -7.0154647230        0.2778226351
 H         2.3954016690       -8.4798865483        1.0735367550
 H         1.7029912625       -7.7520900892       -0.3082592831
 H         9.3024269406      -11.3810862518        0.2349571405
 H         7.5722136088      -10.9272449653       -0.3466677770
 H         8.2307157953      -10.3549376545        1.1247312473
 H         9.9713486375       -8.3624306982        1.2079897177
 H        10.9696687781       -8.2566557955       -0.0198451841
 H        10.6776554043       -9.8448662858        0.8623395366
 H         8.8469539177      -11.7412354199       -7.4453842470
 H         9.9980830398      -11.7952078611       -6.1795220579
 H        10.1935559632      -10.5986699611       -7.3717971629
 H         8.3091567716       -8.2311911139       -6.9254325170
 H         6.8748644643       -8.7033518505       -6.3093665253
 H         7.3770340327       -9.4749386022       -7.7355326561
 Na        6.6232956895       -8.1117211795       -3.3013927258
 Na      -10.0274332457        2.7620724638      -13.5737104070
