232

 C         7.1107038225      -12.4975541334       -5.5822183689
 C         7.3593015168      -10.9647294254       -5.2052305844
 O         6.6304529349      -10.3961852688       -4.4451572264
 C         8.5179413342      -10.1397933170       -5.8952470726
 C         9.3375066308       -9.3534601815       -4.8145924152
 O         8.9313617481       -8.3120483994       -4.3042155929
 C        10.5905505049       -9.9241172765       -4.2886219651
 C        10.7799482186       -9.5126934818       -2.8291605648
 C         9.4896345346       -9.8327532163       -2.0428114384
 O         8.6595484788      -10.5609653621       -2.5238641751
 C         9.1328171722       -9.3009414159       -0.4832482919
 C         8.0933110088       -8.0729576662       -0.5665161281
 O         8.0891864632       -7.3647262319       -1.5592889691
 C         7.1660196202       -7.8956863483        0.6728061104
 C         5.7379090956       -7.5915966679        0.2410700118
 C         5.1234860716       -8.7892694832       -0.5007980809
 O         5.8480452473       -9.5822846785       -1.0031056745
 C         3.5284382416       -8.7757917380       -0.8615633607
 C         3.4995095599       -8.0168101605       -2.2926802516
 O         3.1801914309       -6.8531204165       -2.2645521546
 C         3.8035943075       -8.7420101312       -3.5251067395
 C         3.5155875690       -7.7167360935       -4.8134775457
 C         4.2509166717       -6.4491788305       -4.6106709169
 O         5.4130989019       -6.4235509764       -4.1346343414
 C         3.6512137273       -5.0430566868       -5.0981940285
 C         3.3834683385       -5.0866834128       -6.7112161069
 O         3.2734550776       -6.1389968069       -7.2203769216
 C         3.4907440388       -3.7051958514       -7.4598763068
 C         2.7641607821       -3.5555876084       -8.8431761629
 C         1.3120262134       -3.0816560986       -8.8002276144
 O         0.8003865347       -2.7015942521       -7.7848189899
 C         0.3110017012       -3.0784461066      -10.1443270692
 C        -0.9643424951       -2.1233632286       -9.8189026635
 O        -1.0370589217       -1.0630315682      -10.3656453929
 C        -1.9901168000       -2.6350973453       -8.7878085858
 C        -2.6818603332       -1.4165308548       -8.0807387666
 C        -4.1487677093       -1.4799305035       -7.6831646405
 O        -4.8248566552       -2.2523598556       -8.2655515733
 C        -4.8387470692       -0.1748661289       -6.9509545756
 C        -4.8226714514        1.0044568331       -7.9958295794
 O        -4.8624106178        0.7315412215       -9.1672514451
 C        -4.8246903801        2.5326540514       -7.6365887501
 C        -3.9484398406        3.3822573504       -8.6493661983
 C        -4.4877885722        4.8190145206       -8.6107073863
 O        -5.0571852964        5.2815490256       -7.6336642380
 C        -4.3799212371        5.7447131868       -9.9267854212
 C        -5.5301720875        5.4265654745      -10.8536946208
 O        -5.3241303476        5.3549126613      -12.0429929531
 C        -6.9051443636        5.0762378398      -10.2592205947
 C        -8.0632352656        5.9952698118      -10.8727440123
 C        -8.6314653442        5.4392154738      -12.2872356079
 O        -9.3805861765        4.4606573895      -12.1454694297
 C        -8.6605734311        6.3996432046      -13.6685143400
 C        -8.3152204545        5.3279973172      -14.7689101346
 O        -9.1659540082        4.5244947321      -15.0938136076
 C        -6.8365431564        5.1243305062      -15.0861739658
 C        -6.4579986614        3.8786714853      -15.8371947723
 C        -7.4912197703        2.6946358182      -15.5720812562
 O        -7.6695842509        2.2250090906      -14.4630442887
 C        -8.2692273324        1.8902322984      -16.7882226598
 C        -9.4442035417        1.1646200851      -16.0277892662
 O       -10.4150319061        1.6632665083      -15.5137753454
 C        -9.1876287346       -0.3958242128      -15.9362044674
 C        -9.9006615193       -1.2057906399      -14.8292774087
 C       -11.4418311873       -1.1517944423      -14.6790919090
 O       -12.1818402799       -0.9568963913      -15.6389565243
 C       -12.0707800665       -1.0970315313      -13.2019882420
 C       -11.8055941467        0.3804992641      -12.7446677253
 O       -10.6960232828        0.7311592603      -12.4464468342
 C       -12.8854676629        1.5056241272      -12.7159851681
 C       -13.2830960338        1.9159723670      -14.1804058093
 C       -12.9696744115        3.3681381760      -14.4451209308
 O       -12.0513506306        3.8965283247      -13.7736087867
 C       -13.7773450678        4.1352844182      -15.4460121222
 C       -13.3609537703        3.5920773460      -16.8932446067
 O       -12.9098381220        2.5092051542      -17.0254255284
 C       -13.7680474670        4.3772902468      -18.1382035755
 C       -13.5425814653        3.6236006981      -19.4760508262
 C       -12.9363030477        4.5251037432      -20.5580645448
 O       -12.1696024329        5.3824746620      -20.2202391523
 C       -13.1258549194        4.1328240393      -22.1194540493
 C       -12.3395921113        2.7487304604      -22.4204489695
 O       -12.4104909534        1.8936167085      -21.5253074015
 C       -11.6077856141        2.5426720353      -23.6746423949
 C       -14.6256573803        3.8353205291      -22.3760586682
 C       -12.6414710204        5.2086716018      -23.0273599422
 C       -15.2918499567        3.9171073284      -15.3834393684
 C       -13.4666321424        5.6535578587      -15.4041833045
 C       -13.5508465872       -1.4899340449      -13.0600563739
 C       -11.2760606167       -1.9740109449      -12.1372826834
 C        -8.8460687498        2.7074572042      -17.9012208060
 C        -7.1769105019        0.9772908761      -17.3885849661
 C       -10.0095699112        7.0437646346      -13.8028810378
 C        -7.5820217458        7.4980804812      -13.4828364392
 C        -4.4906973326        7.1734673106       -9.3905283143
 C        -3.0544339915        5.3649098730      -10.5927549200
 C        -6.3008312378       -0.5192562125       -6.4744902635
 C        -4.0575842192        0.3120712722       -5.6692761956
 C         1.1159545753       -2.3547627560      -11.1776260190
 C         0.0876950867       -4.6241391290      -10.4365173643
 C         2.2761178254       -4.7476485265       -4.5126231420
 C         4.6342421403       -3.9550296795       -4.7949805397
 C         3.1485065878      -10.3115747369       -0.9973021470
 C         2.5574230549       -8.0314418946        0.0251512255
 C         8.5200468328      -10.6244031332        0.0788624119
 C        10.4091643310       -8.8812026931        0.1619680869
 C         9.4119600257      -11.0573169633       -6.8117016330
 C         7.7096787641       -9.1934295360       -6.8074755111
 H         6.6589625817      -12.5850089319       -6.5498316650
 H         6.4518237332      -12.8177312724       -4.8260740582
 H         8.0433553242      -13.0937252188       -5.5424300239
 H        11.4253342938       -9.6053988425       -5.0022509985
 H        10.4587085263      -11.0249452769       -4.4543861646
 H        10.9200169123       -8.4497529455       -2.6409718910
 H        11.6107711405      -10.1237228404       -2.4543797750
 H         7.5164895644       -7.1447706628        1.3971875643
 H         7.2382050929       -8.8299579875        1.2744116053
 H         5.7464291170       -6.5322158621       -0.1707889690
 H         5.1131083360       -7.3970369338        1.1066017838
 H         3.1358741270       -9.6073456685       -3.5853627460
 H         4.8024435476       -9.1304564108       -3.3903616460
 H         2.4631921574       -7.5217718629       -4.8531677886
 H         3.8664735783       -8.1351090632       -5.7969806033
 H         4.5500641796       -3.3968936152       -7.6033380235
 H         3.1437469436       -3.0258701819       -6.7577114988
 H         2.8134368096       -4.4775053972       -9.4743310084
 H         3.3149030620       -2.8682803501       -9.4756273480
 H        -1.5509875162       -3.2483108054       -7.9221436269
 H        -2.6656812152       -3.4281248509       -9.2629611129
 H        -2.6542984229       -0.6035642649       -8.8499988050
 H        -2.0379845736       -0.9924495765       -7.3530300355
 H        -4.3975731861        2.7040116779       -6.5943827790
 H        -5.8616884583        2.9167158549       -7.7190271292
 H        -4.1285110911        2.9764918711       -9.6113405798
 H        -2.8493237543        3.5175760947       -8.5289364138
 H        -6.8853823605        5.2215872928       -9.1619924202
 H        -7.1685729906        4.0620081152      -10.4872423263
 H        -7.5824546115        6.9853397548      -11.1386066963
 H        -8.8292349281        6.1480448709      -10.1682703237
 H        -6.3631120506        4.8778385933      -14.0948238658
 H        -6.5001834997        6.0386337193      -15.5365770280
 H        -5.5682744046        3.5158089370      -15.3131649304
 H        -6.2910880406        3.9543510201      -16.8916698912
 H        -8.1311518865       -0.6589586808      -15.6628107610
 H        -9.4185496732       -0.9057201934      -16.8500960058
 H        -9.3388359324       -1.0688271130      -13.8848782529
 H        -9.7174809204       -2.2554981504      -14.9531652392
 H       -12.5468815443        2.4216575204      -12.1585025423
 H       -13.8277210192        1.2135030450      -12.1565242837
 H       -14.3613941284        1.6554706653      -14.1604687003
 H       -12.8835157817        1.4306206475      -15.0244347184
 H       -13.2535791888        5.3953427473      -18.1982001593
 H       -14.8221475150        4.6154420056      -18.0068875210
 H       -14.4819846977        3.1435371299      -19.7253753527
 H       -12.8860930526        2.8151199084      -19.2226719798
 H       -11.0092631780        1.6792555864      -23.5263037990
 H       -10.9685773514        3.4231555670      -23.9904368759
 H       -12.2662867312        2.3208533949      -24.5425218217
 H       -15.3362465917        4.6628638004      -22.0359303991
 H       -14.9158464841        2.8720486380      -21.9181103684
 H       -14.8413064744        3.6074861538      -23.4796106962
 H       -13.3873313388        5.3852177373      -23.7726817559
 H       -11.6751355064        4.9160863950      -23.4802732231
 H       -12.3805817068        6.1163343316      -22.4720229992
 H       -15.9330492686        4.7530273371      -15.4553606505
 H       -15.7104287912        3.3110590511      -14.5313823477
 H       -15.7096412873        3.3509827696      -16.1995812000
 H       -12.3885911558        5.7839421100      -15.1909075626
 H       -14.1484697231        6.1524994647      -14.7428408171
 H       -13.6593272799        6.0258362450      -16.4168190718
 H       -14.2432694012       -0.8931569075      -13.6881381584
 H       -13.7319197007       -1.2476460444      -11.9974998520
 H       -13.7292569631       -2.5229618324      -13.3255829498
 H       -11.8142096818       -1.8147575025      -11.1671222991
 H       -10.2550089148       -1.5057598011      -12.1178427325
 H       -11.2184730594       -2.9834987722      -12.3548633938
 H        -9.1174070966        1.9938473277      -18.7792497562
 H        -8.1123719164        3.4028523912      -18.2839930189
 H        -9.7076935181        3.2994370778      -17.5734251489
 H        -6.4238614991        1.5730967069      -17.9445212668
 H        -7.5826328689        0.2946790421      -18.1879416288
 H        -6.6712407461        0.3798137700      -16.6639863494
 H       -10.7659939501        6.2409825242      -14.0653719383
 H       -10.0304143682        7.7530551853      -14.5882478588
 H       -10.3317336366        7.5168159082      -12.8664416528
 H        -7.7620666727        8.1325536216      -12.5982950623
 H        -7.7392512570        8.1624707470      -14.3127879142
 H        -6.5577302415        7.2615059564      -13.5474423781
 H        -5.5328092757        7.4324138513       -9.2658907905
 H        -4.0588615117        7.9830174032      -10.0613699720
 H        -3.9455448459        7.3847463856       -8.4804043689
 H        -3.0262971361        4.3518475038      -10.9825213250
 H        -2.1931647963        5.5202389430       -9.8907946907
 H        -2.8327240984        5.9483244280      -11.4662900688
 H        -6.6534518991        0.4304729302       -5.9455960797
 H        -6.1633454661       -1.3007327588       -5.7659680853
 H        -7.0279711340       -0.9359939397       -7.1738794179
 H        -3.3577571958       -0.4844799721       -5.3710592037
 H        -4.7788963102        0.3545567131       -4.7568265738
 H        -3.7095684147        1.3812503251       -5.8280689750
 H         0.5796563571       -2.3923548897      -12.1530734250
 H         2.0697887428       -2.7956961404      -11.3417390737
 H         1.3250674383       -1.2592452110      -11.0370512001
 H         0.9997239625       -4.9743588811      -10.9223644215
 H        -0.6879130262       -4.7829343698      -11.2068505649
 H        -0.3505368317       -5.1692585577       -9.5987816118
 H         2.3458597751       -4.3559018024       -3.4809012940
 H         1.6638329758       -5.6019103789       -4.3427461642
 H         1.6582798149       -4.0627743648       -5.1517345289
 H         4.2047540854       -2.9458865287       -4.9247954395
 H         5.5989348845       -4.1716685726       -5.2629178663
 H         4.9553446558       -4.0396401859       -3.7604039352
 H         3.9605951468      -10.9288200250       -1.3944116157
 H         2.2628222009      -10.4220377631       -1.6369627930
 H         2.7165817256      -10.7793269333       -0.0033298466
 H         2.8554370622       -6.9696493626        0.1695873682
 H         2.4283113872       -8.5029706427        1.0109869259
 H         1.5121476634       -7.9958620014       -0.3625425930
 H         9.2608033753      -11.4017767325       -0.1202290655
 H         7.6452047170      -10.7906573269       -0.5158081368
 H         8.3150297179      -10.7134996518        1.1332989452
 H        10.3979853322       -8.5728632857        1.2121988893
 H        10.6998385253       -7.9610555896       -0.2661112613
 H        11.1708725087       -9.6741330114        0.1979175063
 H         8.7928872176      -11.6622835375       -7.4633066048
 H        10.1041283699      -11.7507339776       -6.3870248680
 H        10.0083931139      -10.4520263317       -7.4965819404
 H         8.3572959906       -8.4226757982       -7.2014330727
 H         6.9458028167       -8.5656630086       -6.3844236409
 H         7.2316098438       -9.7426229345       -7.6610247879
 Na        6.7952480593       -8.1715820509       -3.3366596283
 Na       -9.9966097998        2.6896477384      -13.6802188847
