232

 C         7.0481129819      -12.4855844422       -5.6973517721
 C         7.3151401193      -10.9766194454       -5.2687171438
 O         6.5713789489      -10.4837282333       -4.4720873119
 C         8.3997759864      -10.1572667290       -5.9577443267
 C         9.2954253904       -9.2490947115       -5.0093701839
 O         9.0348876128       -8.0766720021       -4.7187515881
 C        10.5558922660       -9.8765632963       -4.4297781256
 C        10.6581652018       -9.5385760840       -2.9428534891
 C         9.3820244685       -9.6565031068       -2.0834675240
 O         8.4274674496      -10.1870775582       -2.5833668692
 C         9.3532304809       -9.2129716134       -0.4733898572
 C         8.1840833325       -8.0786274620       -0.5551814797
 O         8.0929713346       -7.3107533615       -1.5022510483
 C         7.2526067731       -7.9645175205        0.6672683371
 C         5.8318323031       -7.6976539727        0.2878715929
 C         5.3149005693       -8.7660822746       -0.6690972013
 O         6.0955803413       -9.5329294821       -1.1376502601
 C         3.7375327992       -8.8549842528       -0.9775992902
 C         3.4188824246       -8.0437406754       -2.3227957566
 O         2.9946695418       -6.9241182591       -2.2544352567
 C         3.6219698573       -8.7686100636       -3.7050642718
 C         3.6189542200       -7.7779930378       -4.9070764236
 C         4.5145643955       -6.5300421503       -4.6352351194
 O         5.6941121789       -6.6285057151       -4.2511975919
 C         3.9000387102       -5.1516141103       -5.0501850042
 C         3.4646499978       -5.1236965194       -6.5605951314
 O         3.2210814619       -6.1053953266       -7.1854634976
 C         3.3026074254       -3.6909615786       -7.1732831033
 C         2.5173382593       -3.7188991705       -8.4497738837
 C         1.1620013230       -3.0824608846       -8.4818382605
 O         0.6161581164       -2.6837386154       -7.4796125510
 C         0.3908912310       -2.9056130878       -9.8660794650
 C        -0.8849020066       -1.9445380835       -9.8623952049
 O        -0.9904714463       -1.0420519794      -10.6372454851
 C        -1.9293829982       -2.3688624149       -8.8856999197
 C        -2.5123155131       -1.1199573765       -8.1077299318
 C        -4.0908210979       -1.5090665774       -7.7192398482
 O        -4.6550817832       -2.4741312784       -8.1011787027
 C        -4.7785262035       -0.2791343365       -6.9528474916
 C        -4.6558617912        1.0136636651       -7.8417986947
 O        -4.5008060831        0.8819993092       -9.0555670673
 C        -4.7954760558        2.3848356169       -7.3809937528
 C        -4.1117250982        3.2517608261       -8.4713967783
 C        -4.6565291909        4.7681981708       -8.4122566371
 O        -5.1606780275        5.2266006728       -7.4006245634
 C        -4.3654325451        5.5775313350       -9.6543856081
 C        -5.5234038037        5.3835648423      -10.7934945354
 O        -5.2668256136        5.5930264534      -11.9609353536
 C        -6.9123735393        5.0924431393      -10.2610303297
 C        -8.0114214163        6.1087243733      -10.8818047378
 C        -8.5181623514        5.6114797514      -12.2244794873
 O        -9.0763578430        4.4989619249      -12.0989216742
 C        -8.4779215150        6.4165785424      -13.5839468113
 C        -8.3271900157        5.3432746779      -14.8301103082
 O        -9.3329173903        4.9717434064      -15.4378754122
 C        -6.8883112294        4.9330323693      -15.1323719216
 C        -6.8769518263        3.7474120023      -16.1148696269
 C        -7.6672080796        2.5177943732      -15.6173487665
 O        -7.7352404175        2.3010812182      -14.3634861746
 C        -8.3601767183        1.6627339465      -16.7234203925
 C        -9.4491175555        0.7670388749      -16.0618380933
 O       -10.3875131461        1.3189878262      -15.5152054455
 C        -9.3566155658       -0.7368300335      -16.1737622462
 C        -9.8466224160       -1.1472488343      -14.7309947642
 C       -11.4154510651       -1.1964263228      -14.6387036316
 O       -12.0970385966       -1.4874630971      -15.5984547446
 C       -12.1939688938       -0.9518192693      -13.2391884637
 C       -11.9457201287        0.4587421716      -12.8487684848
 O       -10.7989045263        0.7778911176      -12.5851783962
 C       -12.9316682942        1.6220509015      -12.8225502527
 C       -13.2628787107        2.0555604276      -14.3127570557
 C       -12.9423758370        3.5411695291      -14.5276512927
 O       -11.9483952145        4.1255294003      -14.1068699249
 C       -13.8616657997        4.4009333973      -15.5255879419
 C       -13.5576406555        3.8026413873      -16.9316998982
 O       -12.7536493941        2.9163253962      -16.9950091333
 C       -14.0947813621        4.4776085238      -18.2362892177
 C       -13.5100465204        3.5440960057      -19.4148731881
 C       -12.9379947838        4.3965301660      -20.5473597329
 O       -12.4013679600        5.4284724633      -20.2944058532
 C       -13.2537287091        4.0476488829      -22.0990648186
 C       -12.3423620296        2.7358264110      -22.4081909093
 O       -12.1160924624        2.0099813903      -21.4589853433
 C       -12.0301253798        2.2163566752      -23.8068365065
 C       -14.7818475315        3.6732145516      -22.4120361111
 C       -12.7697148472        5.2614900289      -22.9183328273
 C       -15.3482604267        4.3240778155      -15.2091034485
 C       -13.4126508720        5.8929547628      -15.5454155122
 C       -13.6409671734       -1.2549353384      -13.5864666431
 C       -11.7424179365       -2.1293496221      -12.2782515229
 C        -9.2912915106        2.6065320387      -17.5114817712
 C        -7.2929577844        0.8953206284      -17.5836110228
 C        -9.9690027300        6.9644420581      -13.7351263215
 C        -7.4409246622        7.4491311515      -13.6974229114
 C        -4.5165117610        7.1447386780       -9.3230185140
 C        -3.0292047620        5.2072991848      -10.2273274625
 C        -6.4175135936       -0.5479070952       -6.8178849287
 C        -4.1579517150       -0.2552123441       -5.4537770959
 C         1.3323855190       -2.5713969100      -10.9630964679
 C        -0.2916568338       -4.2841949986      -10.1720099582
 C         2.5800216106       -4.9207823069       -4.3211501829
 C         4.9810473778       -4.0917317378       -4.7555020426
 C         3.3660711638      -10.3124579580       -1.2234989195
 C         2.8691547963       -8.2421901253        0.1701713650
 C         9.0741381021      -10.4805231963        0.4175047901
 C        10.6541915103       -8.5845228184       -0.0583836336
 C         9.2467927638      -11.1048739197       -6.8625362540
 C         7.5607256273       -9.1398554898       -6.8399689075
 H         6.8992338431      -12.5296475446       -6.8090393283
 H         6.0875754102      -12.6381292894       -5.2738609040
 H         7.8360471827      -13.2593380608       -5.3453395424
 H        11.5049672897       -9.4323907874       -4.9197852920
 H        10.4948827009      -10.9931450799       -4.6559934242
 H        10.8836623102       -8.3787399573       -2.9008900089
 H        11.4205993970      -10.0335132481       -2.3344605439
 H         7.6797884220       -7.3005458997        1.3472484903
 H         7.2022497159       -8.9272899647        1.1566848074
 H         5.5639258470       -6.6962609359       -0.0329485943
 H         5.3412551656       -7.7250560250        1.2167878333
 H         2.8219320892       -9.5436109500       -3.7183157603
 H         4.6262116906       -9.2643002840       -3.6541990980
 H         2.6142650260       -7.4614762083       -5.0108758478
 H         3.7988146033       -8.2448946659       -5.9490072167
 H         4.3139358633       -3.1054936567       -7.2331366964
 H         2.7071420570       -3.0759312112       -6.4319436680
 H         2.4507175377       -4.7751987340       -8.7750674934
 H         3.1243288749       -3.3201205542       -9.2450712418
 H        -1.5213055532       -2.9768409838       -8.0149485141
 H        -2.7833672192       -2.9232631948       -9.3231248575
 H        -2.4358775230       -0.2541863111       -8.7711812426
 H        -1.9258934979       -0.8003246646       -7.1944435850
 H        -4.3288000279        2.6975286911       -6.3885393758
 H        -5.8107812048        2.5233890759       -7.3652612568
 H        -4.3257000777        2.9034729131       -9.4872582566
 H        -3.0133359257        3.2720249502       -8.2583014109
 H        -6.9944518652        5.2633248584       -9.1860462694
 H        -7.1336243342        4.1036227146      -10.4657253186
 H        -7.6421442372        7.1842323685      -10.8658982278
 H        -8.9208203074        6.0014243986      -10.2089122800
 H        -6.5420635048        4.5420476292      -14.1218252687
 H        -6.2356433826        5.6216274516      -15.5739695096
 H        -5.8640243288        3.5054912220      -16.4477617304
 H        -7.3897140724        4.1008206287      -17.0860767357
 H        -8.4656026561       -1.2582656874      -16.3511052363
 H       -10.2199122749       -1.1147631129      -16.8158010007
 H        -9.4225758233       -0.3473735277      -14.0014620624
 H        -9.4024509701       -2.0682494521      -14.2845116772
 H       -12.3986296835        2.4138213428      -12.3527926553
 H       -13.8026523680        1.3774423870      -12.1982681132
 H       -14.2973594065        1.7957895109      -14.5950924758
 H       -12.6500239139        1.3360806692      -14.9086556409
 H       -13.6709792923        5.4836962991      -18.3492989451
 H       -15.1424895008        4.6591355078      -18.1857764382
 H       -14.3741724466        2.8791194642      -19.6617006704
 H       -12.7024262509        2.9250661656      -18.9467670329
 H       -12.6581171527        1.4165231258      -24.2198005987
 H       -10.9537137289        1.9734916590      -23.8740223136
 H       -12.1664863398        3.0873952768      -24.4520938877
 H       -15.4544308740        4.4017538307      -22.0746590564
 H       -14.9955901240        2.8093894466      -21.8298199092
 H       -14.9975984539        3.2943901005      -23.3633291223
 H       -13.5669293386        5.8500604323      -23.2029650980
 H       -12.1952438612        4.8610752665      -23.8061948767
 H       -12.0970073314        5.8686205831      -22.2951477585
 H       -16.0025283443        4.5866592814      -16.0122198917
 H       -15.6410585190        4.8719054136      -14.3516861880
 H       -15.7854339124        3.3984381041      -14.8776398940
 H       -12.3980905671        5.8735417532      -15.9989571029
 H       -13.3222490009        6.2511435085      -14.5152756039
 H       -14.1167140713        6.4775866499      -16.0627929553
 H       -13.8819012685       -0.5795002490      -14.4330230360
 H       -14.3516115316       -1.1458184830      -12.7422432700
 H       -13.7862722117       -2.2069755327      -14.0204027019
 H       -12.3580588756       -2.0819619143      -11.3927236349
 H       -10.6597547771       -2.1351907880      -12.0608709882
 H       -12.0429251266       -3.0363888242      -12.7729775666
 H       -10.1179582961        2.0283940652      -17.9263946096
 H        -8.9030768582        3.1355949892      -18.2763972165
 H        -9.6571490485        3.2840449335      -16.7486198898
 H        -6.6390195375        1.6226531039      -18.0573297737
 H        -7.6833404118        0.3059162221      -18.4182739956
 H        -6.7277881108        0.2077468932      -17.0177788116
 H       -10.5921806387        6.0503087619      -13.3716539526
 H       -10.2171505926        7.2000116354      -14.7550680437
 H       -10.2323368199        7.7304032682      -13.0149657397
 H        -7.8697570974        8.4671903739      -13.6260940175
 H        -6.7466306284        7.4191074030      -14.5483341310
 H        -6.7337569413        7.2819150698      -12.8596277675
 H        -5.3925111655        7.3357928478       -8.7033231837
 H        -4.6392860551        7.7607389110      -10.2143771731
 H        -3.6943408422        7.5656882945       -8.8236414181
 H        -2.9359330198        4.2249063628      -10.5340029272
 H        -2.1988166631        5.5051616244       -9.5566021110
 H        -2.9135513111        5.6691912723      -11.2183964088
 H        -6.6338986507       -0.5418007807       -5.7664357514
 H        -6.6856644038       -1.4813160415       -7.2589758765
 H        -7.0573934542        0.1925802349       -7.3467074888
 H        -4.7757614825       -0.8577701852       -4.8298873133
 H        -4.1312689969        0.7116883035       -5.0081857940
 H        -3.2181029047       -0.7422486258       -5.4819011140
 H         0.8522820752       -2.2805080673      -11.9204785104
 H         1.9391060328       -3.4067141319      -11.1675147499
 H         2.1021508391       -1.8401652559      -10.7521438593
 H         0.4318799440       -5.1284542126      -10.3062105782
 H        -0.9143106978       -4.1984721330      -11.0100720590
 H        -0.9247340019       -4.5312135829       -9.2903337057
 H         2.5160325583       -4.8625020525       -3.2419473914
 H         1.8684200755       -5.6833379263       -4.6696142083
 H         2.1215554585       -4.0415253457       -4.6884606033
 H         4.5343696034       -3.0880944895       -4.8316511655
 H         5.8259480813       -4.2080569195       -5.4334847026
 H         5.3841325674       -4.1359961237       -3.7764337645
 H         3.9094092529      -10.7790178061       -1.9746662713
 H         2.3390632881      -10.3714568851       -1.4177138764
 H         3.7222599187      -10.9654086524       -0.3293361680
 H         2.9213969307       -7.1646047962        0.1701625881
 H         3.2353930191       -8.5640134718        1.1764794425
 H         1.8413278824       -8.5191370004        0.1237368699
 H         9.9517345860      -11.1882447482        0.3401578295
 H         8.1550239569      -10.9966419658        0.0566079826
 H         9.0511588106      -10.2430047973        1.4397343616
 H        10.8724651935       -8.3069866045        0.9668203202
 H        10.8391650783       -7.6527921674       -0.5971458046
 H        11.4822536483       -9.2973792300       -0.3050634355
 H         8.7350325309      -11.3172734465       -7.8055249685
 H         9.3725138561      -12.0576257943       -6.3623569105
 H        10.2224487440      -10.7152276414       -7.2342288903
 H         8.0307132201       -8.8337320764       -7.7294197831
 H         7.3106905507       -8.2020965948       -6.3789383885
 H         6.6331784680       -9.6230390632       -7.1936024251
 Na        7.0316732270       -8.3541645616       -3.2954769432
 Na       -9.9509747542        2.8750474666      -13.5707276816
