232

 C         7.0267656151      -12.4185345661       -5.6773011813
 C         7.2309367782      -10.9417288208       -5.2878121359
 O         6.4439103289      -10.3790710233       -4.5559140580
 C         8.3822713357      -10.1427459189       -6.0680083290
 C         9.3062039821       -9.2846725080       -5.1137740639
 O         9.0576824076       -8.1144262178       -4.8545131994
 C        10.4975449680       -9.9192649996       -4.3274408699
 C        10.7298891050       -9.3818910469       -2.8744553494
 C         9.4327051573       -9.6582190833       -2.0354091542
 O         8.3677136612      -10.1694699133       -2.3866171482
 C         9.4943155564       -9.1358704606       -0.6096251660
 C         8.2086538882       -8.1609489495       -0.5179492358
 O         8.0284999671       -7.4271183883       -1.4799068931
 C         7.2809841658       -8.0720675324        0.7257604756
 C         5.8706678432       -7.7282595438        0.2070985801
 C         5.3467878881       -8.7732310089       -0.8174641599
 O         6.1204275812       -9.4816931331       -1.3807709247
 C         3.8551823240       -8.9405338053       -1.0223742946
 C         3.4223315597       -8.1218560595       -2.3319754614
 O         3.0009335370       -7.0138087001       -2.1357649240
 C         3.5675725834       -8.8043309335       -3.6234455222
 C         3.6760884047       -7.7555816340       -4.8015615859
 C         4.5350819891       -6.5695618820       -4.6347218895
 O         5.7423490986       -6.7197176868       -4.3539227626
 C         4.0281835028       -5.1609982687       -5.0386875160
 C         3.5622378200       -5.1724701101       -6.4909261470
 O         3.2706554314       -6.1913779593       -7.0436651531
 C         3.2371665069       -3.7791427233       -7.1519940839
 C         2.3962486959       -3.6751880589       -8.4381034004
 C         1.0058963235       -3.0080483501       -8.3593279151
 O         0.5277401699       -2.6319944123       -7.3218511677
 C         0.3367217493       -2.9720159464       -9.8790938233
 C        -0.8533278398       -1.9056689169       -9.8695200810
 O        -0.9462764704       -0.9293888655      -10.6029312142
 C        -1.9132126317       -2.3561354970       -8.8441281460
 C        -2.6401046433       -1.1580116414       -8.1600010026
 C        -4.0318350421       -1.4887994803       -7.8291986204
 O        -4.4275822281       -2.6215161352       -8.0027153176
 C        -4.8299917109       -0.4029047089       -6.9656484872
 C        -4.6281655558        0.9642527131       -7.8282123233
 O        -4.4399583237        0.7528071084       -8.9789358964
 C        -4.7481319586        2.4870832863       -7.2535419132
 C        -4.1731102784        3.4355733336       -8.3473540041
 C        -4.6566100980        4.8548051655       -8.3605586725
 O        -5.2992494876        5.2761240718       -7.4001485725
 C        -4.3791571904        5.6729954679       -9.6289513870
 C        -5.5447035316        5.4611557951      -10.7056228507
 O        -5.2658002894        5.5519679468      -11.8641150651
 C        -6.9360814892        5.1866487124      -10.2277492617
 C        -7.9118685128        6.1859880248      -10.8638403707
 C        -8.4167303458        5.5478647599      -12.2163231037
 O        -8.9322355446        4.4269801020      -12.2714318488
 C        -8.4591477512        6.3913548034      -13.5280591003
 C        -8.3110992276        5.3073245102      -14.7014187087
 O        -9.2288700540        5.0381767843      -15.4218827576
 C        -6.8766610016        4.7933150250      -15.0730701690
 C        -6.9530255425        3.7051895611      -16.1227580749
 C        -7.7180171862        2.5378711626      -15.6800416984
 O        -7.9369472279        2.3233152154      -14.5001735296
 C        -8.4516502191        1.6357877643      -16.7239694627
 C        -9.4424525000        0.7129072403      -15.9520188172
 O       -10.3163626494        1.2395680520      -15.3392923898
 C        -9.4209608442       -0.7939443691      -16.0440734134
 C        -9.9027483239       -1.3345728819      -14.7156423298
 C       -11.4239597894       -1.3008255316      -14.6835236341
 O       -11.9880287963       -1.6675655844      -15.7622281548
 C       -12.2691854752       -0.9494676514      -13.4321651850
 C       -11.8477019460        0.5346899402      -12.8431586689
 O       -10.7115715183        0.8485539474      -12.6593624646
 C       -12.9975743200        1.6877926731      -12.8461834849
 C       -13.2672070312        2.1454644728      -14.3374376917
 C       -12.9570442787        3.5828517659      -14.5815679967
 O       -11.9178233688        4.0836138257      -14.1101761758
 C       -13.8236583073        4.4434672756      -15.5606844432
 C       -13.5125137277        3.8414098618      -16.9681363667
 O       -12.6740278361        2.9623963384      -17.0094679388
 C       -14.0989135946        4.4383549902      -18.2084826679
 C       -13.6836486869        3.6060643417      -19.4321428245
 C       -13.1482659711        4.4722323834      -20.5647899062
 O       -12.4674295385        5.4520174073      -20.2678226284
 C       -13.2331896824        3.9756173448      -22.0640899267
 C       -12.4177556508        2.6847870420      -22.3927800056
 O       -11.9699010160        2.0658090891      -21.4290462539
 C       -12.2340974595        2.2604362034      -23.8240517301
 C       -14.6488882215        3.6420986520      -22.4022449728
 C       -12.8116876711        5.1565194006      -23.0203548198
 C       -15.3508046141        4.3623799989      -15.1591728982
 C       -13.3509403687        5.9070055989      -15.6306418685
 C       -13.7882361257       -1.0939390257      -13.6757565857
 C       -11.8746521791       -1.9368237953      -12.2515834042
 C        -9.4470184461        2.4602864076      -17.6392003552
 C        -7.4950223635        0.9187987698      -17.6529032036
 C        -9.9465719661        6.9455451955      -13.6839844042
 C        -7.4745483334        7.6066182306      -13.6017023653
 C        -4.4920844017        7.1609362655       -9.2297197461
 C        -3.0270563391        5.2665480746      -10.2828941031
 C        -6.3186062613       -0.6884361791       -6.8760300449
 C        -4.2852138530       -0.2974896446       -5.5600649599
 C         1.3821036806       -2.5782379247      -10.9550140817
 C        -0.2952847752       -4.4700250940      -10.1026764566
 C         2.6517578992       -4.8568527324       -4.2953824859
 C         5.1843734086       -4.0644866464       -4.7005496304
 C         3.5039031394      -10.4157421062       -1.0959717095
 C         3.0172237500       -8.2802479418        0.1204645977
 C         9.2120074254      -10.3664292924        0.2925937317
 C        10.7403924799       -8.3952238529       -0.1393361309
 C         9.2440756830      -11.0296053007       -6.9723041485
 C         7.5278045310       -9.1936572936       -6.9212027402
 H         7.1388258218      -12.5066635928       -6.7597065748
 H         5.9521459999      -12.6589398625       -5.4431093915
 H         7.7400883164      -13.0822582374       -5.1623416118
 H        11.4822018781       -9.6863533687       -4.8998055500
 H        10.4247162788      -11.0928580335       -4.2160813904
 H        10.8129223179       -8.3140754507       -2.8060421882
 H        11.6099626604       -9.8123286516       -2.2808467935
 H         7.7503466957       -7.2289208194        1.1917480467
 H         7.2086778501       -8.9154227042        1.3739133888
 H         5.7797509343       -6.7464089316       -0.2947506074
 H         5.2927037655       -7.5730518477        1.0728758428
 H         2.6666150928       -9.4588291020       -3.5729606456
 H         4.4492967252       -9.4065376638       -3.6963590552
 H         2.7127370308       -7.4158574722       -5.1803643331
 H         4.0346782782       -8.3234869137       -5.6937619171
 H         4.2837341947       -3.2922232470       -7.2139038421
 H         2.7126072624       -3.1163352296       -6.4413470008
 H         2.3595137502       -4.6791807193       -8.9358590163
 H         2.9860239180       -3.1190265813       -9.1487310229
 H        -1.6158083334       -2.9645974660       -7.9433507577
 H        -2.7775199960       -2.9559292580       -9.4262967344
 H        -2.4604132537       -0.2249156166       -8.7745416737
 H        -2.2583915295       -0.9112616565       -7.1815751312
 H        -4.1094720703        2.5626774416       -6.3608329685
 H        -5.8032110669        2.7680904548       -6.9712916189
 H        -4.5108118884        3.1073423385       -9.3163888987
 H        -3.0572691970        3.5069067691       -8.3133736865
 H        -6.9945977722        5.3849952422       -9.2011723413
 H        -7.1659560191        4.1749475176      -10.3869758430
 H        -7.3135535216        7.1273601042      -11.0787032995
 H        -8.7996132029        6.4382690276      -10.2684277776
 H        -6.3494088019        4.3565084360      -14.2025828602
 H        -6.2419514321        5.4863299464      -15.5962251694
 H        -5.9108824432        3.3664577570      -16.3568075007
 H        -7.2657699822        4.0621971616      -17.0657574292
 H        -8.4184095719       -1.3239034839      -16.0662705320
 H       -10.1337729020       -1.2208432179      -16.7092913915
 H        -9.2997111664       -0.9483750333      -13.8304473558
 H        -9.6961420142       -2.4487798687      -14.6966106732
 H       -12.6728884906        2.5107491462      -12.1477714664
 H       -13.9004135841        1.1844748775      -12.4244436387
 H       -14.2716584970        1.8478420513      -14.7087701457
 H       -12.6410764245        1.4489001337      -14.8089736602
 H       -13.7146077347        5.4961403522      -18.3359490688
 H       -15.1545631417        4.5917383026      -18.0685745740
 H       -14.5193655244        2.9111933037      -19.5450436595
 H       -12.7474109873        3.0594108009      -19.1955298037
 H       -13.1652093602        1.8919247686      -24.1853870772
 H       -11.4297596672        1.4417799373      -23.8593595245
 H       -11.9583185592        3.0995284251      -24.5274424008
 H       -15.3720091388        4.4140282115      -22.1137108411
 H       -15.0137038837        2.8053698532      -21.9162229619
 H       -14.7548158274        3.3454268957      -23.4327377770
 H       -13.6298803105        5.8661038369      -22.9521640209
 H       -12.7159342464        4.7941410265      -23.9908239232
 H       -11.9493242782        5.6318385887      -22.6650345221
 H       -15.9771713832        4.3084034036      -15.9830444883
 H       -15.7155566983        5.2456539500      -14.5932034124
 H       -15.7332282211        3.6640221699      -14.4682447879
 H       -12.4756174609        6.0093085875      -16.2570259555
 H       -13.0556973213        6.1993996408      -14.6385083223
 H       -14.2317530879        6.5139970537      -15.9287077583
 H       -14.2728780174       -0.4778724100      -14.4625635189
 H       -14.3136955243       -1.1174827464      -12.7058798480
 H       -13.9287007782       -2.1616280195      -14.0455808299
 H       -12.5748569357       -1.9475482133      -11.4004930376
 H       -10.8782791118       -1.5655572109      -11.9837381305
 H       -11.7723170574       -2.9080967883      -12.5581667624
 H       -10.1970081166        1.8145154980      -18.1252744448
 H        -8.8208526749        2.8642764790      -18.4601282785
 H        -9.8664571159        3.2395391809      -17.1310015015
 H        -6.8570391454        1.6363115063      -18.1304915924
 H        -7.9302303242        0.3175152952      -18.4431989042
 H        -6.8979836487        0.2220668596      -17.1375261451
 H       -10.7472138696        6.2095536617      -13.5830581918
 H       -10.0120333857        7.5014973037      -14.6316769573
 H       -10.0717877921        7.6189151708      -12.7686690817
 H        -7.9598612265        8.6327849809      -13.5553534211
 H        -6.8365823696        7.5345347686      -14.4944155517
 H        -6.7209431509        7.4933403614      -12.8428396978
 H        -5.1832743082        7.2936750590       -8.4579196560
 H        -4.7504933907        7.9009278375      -10.0327996717
 H        -3.5536481319        7.4822884029       -8.8072701109
 H        -3.0038868221        4.1747580288      -10.4955513348
 H        -2.2751847761        5.5098913504       -9.5383710100
 H        -2.7560721133        5.6206774803      -11.2386588924
 H        -6.6636080608       -0.9560858999       -5.8259063691
 H        -6.5197362828       -1.5150333526       -7.4966888447
 H        -6.9126614105        0.1194331278       -7.2505710236
 H        -4.9275061191       -0.5965154735       -4.7548117400
 H        -3.9860009235        0.7806511641       -5.3255259960
 H        -3.4412831121       -1.0482117060       -5.4902781591
 H         1.0154594446       -2.0159679311      -11.8117414406
 H         2.0255441867       -3.3609970514      -11.3466741300
 H         2.1716425975       -1.9172016362      -10.4700479553
 H         0.4700850064       -5.2165793240       -9.8797442994
 H        -0.7055983534       -4.6105125764      -11.1857580478
 H        -1.0598199214       -4.6790647335       -9.3567745402
 H         2.7302777610       -4.5903232122       -3.2435480482
 H         1.9565865489       -5.6160980584       -4.4223308263
 H         2.1564137522       -3.9473293307       -4.7430820848
 H         4.8013509126       -3.0598155538       -4.9757608057
 H         6.1567149196       -4.2611307226       -5.2268618338
 H         5.3707195751       -3.9526050283       -3.5990164415
 H         4.0839976722      -10.8763633000       -1.9199369128
 H         2.4489468170      -10.4539101686       -1.3801621701
 H         3.8411579943      -11.0428441098       -0.2800242753
 H         3.1547906002       -7.1959959195        0.3522495272
 H         3.1964620196       -8.8168932839        1.0359267212
 H         1.9413510455       -8.4485652333       -0.1390383570
 H        10.0881043119      -11.0154582400        0.3745705462
 H         8.3885118091      -10.9394778358       -0.0664708917
 H         9.0619426737       -9.9840961756        1.3258065161
 H        10.4033177018       -7.8439279722        0.7566717531
 H        11.2527365662       -7.6397612305       -0.7229810894
 H        11.5324792037       -9.0132066414        0.3215066073
 H         8.6993471627      -11.5027362975       -7.8045717862
 H         9.5910960243      -11.8346017949       -6.3223344864
 H        10.0849350747      -10.5471386620       -7.4739216823
 H         8.0783255559       -8.6645780976       -7.6824234077
 H         7.0942629325       -8.4298017466       -6.3447646900
 H         6.7538638370       -9.6938109301       -7.4885514996
 Na        6.9221823352       -8.3360257030       -3.3030673546
 Na      -10.0171350524        2.9623436918      -13.6016659244
