232

 C         6.9779663159      -12.3497818270       -5.6079346677
 C         7.1902683244      -10.8964749601       -5.3795376144
 O         6.4200258117      -10.2624160276       -4.6244321599
 C         8.3656434631      -10.1476063440       -6.0829933269
 C         9.2152641616       -9.3499234672       -5.0395705278
 O         8.9668704349       -8.1703685608       -4.9653086945
 C        10.3871804109      -10.1065866192       -4.3806364229
 C        10.6480370568       -9.3133437843       -3.0371692380
 C         9.5453354140       -9.5927826542       -1.9845063300
 O         8.6319036759      -10.2557884078       -2.4551229977
 C         9.4893272260       -9.0436098737       -0.4528207237
 C         8.2668863940       -8.0815591318       -0.4517738564
 O         7.9932279176       -7.4479404113       -1.4602134499
 C         7.3538421329       -8.1021504217        0.7241807892
 C         5.9470670891       -7.7308368972        0.1753579737
 C         5.3817897633       -8.7834771104       -0.7805745626
 O         6.0767054723       -9.4536280033       -1.5948527804
 C         3.7968334105       -9.0458941284       -0.9539625909
 C         3.4051603151       -8.1516450577       -2.2427164068
 O         3.0234417603       -6.9858692739       -2.1431613944
 C         3.6291903764       -8.8571044813       -3.6491786402
 C         3.6303610570       -7.7898987925       -4.8110302322
 C         4.5979922919       -6.5998132284       -4.6675569887
 O         5.7559283896       -6.7160971214       -4.3747067729
 C         4.0306868627       -5.1499707015       -4.9855793020
 C         3.5294309674       -5.1281713542       -6.5289743595
 O         3.3354268204       -6.2420363968       -7.0682449880
 C         3.2087610043       -3.7355510358       -7.0922787347
 C         2.4271533449       -3.7641220164       -8.4244215232
 C         1.0162401554       -3.0594930903       -8.4137879273
 O         0.4863586399       -2.6105794302       -7.3898335158
 C         0.3557943537       -3.0176806839       -9.7138106665
 C        -0.8325836301       -2.0394188755       -9.7597571948
 O        -0.7839677546       -1.0185802927      -10.4410634305
 C        -1.9866570393       -2.3010153754       -8.8820982266
 C        -2.5835339920       -1.1111444945       -8.1900611224
 C        -3.9501547297       -1.5024347128       -7.6735236635
 O        -4.4689233344       -2.6278039366       -7.8560961564
 C        -4.9116086673       -0.4144878291       -6.9738992526
 C        -4.6577684616        0.9006619825       -7.8190558079
 O        -4.4614059493        0.8284737162       -9.0216840560
 C        -4.6509020893        2.2969848921       -7.1968887970
 C        -4.1769100591        3.3311866877       -8.2285204685
 C        -4.7468817587        4.8020326006       -8.2121628907
 O        -5.4446107107        5.3816858453       -7.4346097695
 C        -4.3392217718        5.7359605566       -9.4989174867
 C        -5.4800506281        5.4752133193      -10.6091122919
 O        -5.3113236336        5.4891695792      -11.8258191444
 C        -6.9896104833        5.3159532860      -10.1210171422
 C        -7.9296358490        6.1897009923      -10.9490310025
 C        -8.4059379423        5.5385165225      -12.2802081958
 O        -8.7116393761        4.3865884558      -12.2002311408
 C        -8.4509711738        6.3903965958      -13.5659576629
 C        -8.2123520256        5.4748494124      -14.7557372804
 O        -9.1655521548        5.0150128140      -15.3491711133
 C        -6.8246935427        4.8017713903      -14.9483882592
 C        -6.8848948834        3.7356948401      -16.1923136341
 C        -7.9268210550        2.5883569003      -15.7251951375
 O        -8.0355108761        2.3106059360      -14.5856972476
 C        -8.6449862919        1.5965358681      -16.8357490452
 C        -9.5478147725        0.6270333816      -15.9086996101
 O       -10.3352805265        1.1470704982      -15.0854359709
 C        -9.3133899342       -0.8681318892      -15.8979748665
 C        -9.9469320817       -1.6670111991      -14.6249214219
 C       -11.4796018982       -1.4542999180      -14.7755924164
 O       -12.0620894663       -1.7366419334      -15.7689358800
 C       -12.2749304307       -0.8586120411      -13.4602700728
 C       -11.8837605023        0.5878293949      -13.0837486221
 O       -10.7595161449        0.8290460815      -12.6905240331
 C       -12.9484166749        1.6083369927      -13.0182193962
 C       -13.3069290694        2.1917124159      -14.3644478907
 C       -12.9539185926        3.6745951549      -14.5123400566
 O       -11.9358804318        4.1652625683      -14.0951238000
 C       -13.8015675264        4.5160129447      -15.5083760095
 C       -13.4473424004        3.7947300825      -16.9918177922
 O       -12.5840441775        2.9224720628      -17.0313624363
 C       -14.1090848082        4.3502618151      -18.2605551816
 C       -13.8659652295        3.6197193255      -19.5793621835
 C       -13.1351396848        4.4808717584      -20.6065452637
 O       -12.5830416860        5.5546512786      -20.3198487089
 C       -13.3295979184        3.9922924966      -22.0874262561
 C       -12.3819907923        2.6558994046      -22.2713998144
 O       -11.7844804049        2.0417496636      -21.4247246265
 C       -12.3733128271        2.2597241276      -23.7446058552
 C       -14.7687776982        3.5914957146      -22.4153488981
 C       -12.8261486176        5.1882963494      -23.1153614549
 C       -15.2930221605        4.4086657814      -15.1424767585
 C       -13.2922491036        5.9539245270      -15.6107802371
 C       -13.8454791187       -0.9402933420      -13.7472770304
 C       -11.9082973498       -1.6870736755      -12.2305142921
 C        -9.5484773729        2.4642562337      -17.8414116376
 C        -7.5849644917        0.8674487892      -17.7013300828
 C        -9.8983149892        6.9461630971      -13.6175244343
 C        -7.4812964216        7.6351114549      -13.5635453900
 C        -4.3645742384        7.2385061127       -9.1960079387
 C        -3.0535543016        5.4802789117      -10.2995832660
 C        -6.3917685796       -0.8475838462       -7.0564574794
 C        -4.2180437323       -0.2719122725       -5.5486502973
 C         1.2796907078       -2.6293674787      -10.8768203752
 C        -0.1263667008       -4.3937009407      -10.0898881490
 C         2.8928466635       -4.7534527887       -4.0835817685
 C         5.1563163706       -4.1399171395       -4.6810378816
 C         3.5905797392      -10.5557978879       -1.0365951521
 C         3.0372830261       -8.3759457291        0.2509325785
 C         9.3515217490      -10.3460827982        0.3494892427
 C        10.7509543283       -8.1979555046       -0.1396721344
 C         9.2788864479      -10.9537767638       -7.0209520292
 C         7.5823501692       -9.1462233021       -7.0504605940
 H         7.2061610831      -12.5916458457       -6.6366338296
 H         5.9868735689      -12.7514501092       -5.2942623782
 H         7.7524781320      -12.7108270264       -4.9969180402
 H        11.3281699650       -9.9341048999       -4.8856713187
 H        10.3955890481      -11.1699065850       -4.0884842076
 H        10.7160657024       -8.2724554052       -3.1464969620
 H        11.5658350397       -9.6519409768       -2.5507681265
 H         7.8259649272       -7.2841422603        1.3665192939
 H         7.3303755220       -9.1044381314        1.1983585541
 H         5.9492082783       -6.8410418332       -0.4661914062
 H         5.2985630097       -7.4219946669        1.0599666825
 H         2.7432153102       -9.4869383671       -3.6759525170
 H         4.4866270023       -9.4556298325       -3.8637690172
 H         2.6060157966       -7.3976724639       -5.0935471584
 H         3.8104846075       -8.3624104671       -5.6696838040
 H         4.2125405149       -3.4129324544       -7.1459193471
 H         2.7194459603       -3.0690518728       -6.3945097091
 H         2.3550429097       -4.8301455571       -8.6703772688
 H         3.0551550719       -3.3819897005       -9.2627831812
 H        -1.8814034701       -2.9997868446       -8.0876993570
 H        -2.8327670611       -2.6445206870       -9.5419983600
 H        -2.7805749313       -0.3496688458       -8.9593340051
 H        -1.9863640506       -0.6227632195       -7.4370047995
 H        -4.0428112427        2.2790660733       -6.3383655587
 H        -5.7332929759        2.6537731815       -6.8944566503
 H        -4.4467480945        2.9957374259       -9.2310972004
 H        -3.1308673949        3.5447235243       -8.1902346063
 H        -7.1911654032        5.5700369839       -9.0929358573
 H        -7.2857567525        4.2222530935      -10.2540778554
 H        -7.4738270734        7.1367300871      -11.0950880067
 H        -8.9195287337        6.3297448426      -10.5279974109
 H        -6.5197645583        4.2761231322      -14.0884354319
 H        -5.9865516786        5.5064493956      -15.3133622846
 H        -5.9281959659        3.2512781496      -16.4419425090
 H        -7.0754629777        4.1987354132      -17.1386602173
 H        -8.2171059756       -1.0799925685      -15.7962796112
 H        -9.8031320858       -1.3146068479      -16.7350826085
 H        -9.6083818111       -1.2068762391      -13.7418217151
 H        -9.7073154943       -2.7337193658      -14.4852881521
 H       -12.5607876059        2.3851803370      -12.2717419171
 H       -13.8161176367        1.0651766995      -12.5791838550
 H       -14.3527130840        2.0215075462      -14.5442612670
 H       -12.8566414518        1.4789983581      -15.0375092718
 H       -13.7455461218        5.3925334637      -18.3706400801
 H       -15.2089301661        4.5192042311      -18.0652465810
 H       -14.8789231333        3.4165750507      -19.8455872434
 H       -13.2732194553        2.7165490084      -19.5263141398
 H       -13.4545136329        2.3685968862      -24.0490359327
 H       -12.1972348768        1.1931427556      -23.7005100379
 H       -11.7378131727        2.7502489687      -24.4965414474
 H       -15.5182212182        4.3582426573      -22.1215850399
 H       -15.2404393621        2.6657947137      -21.9824438691
 H       -14.8622951831        3.4283476068      -23.5051806492
 H       -13.2229433863        6.1327048776      -22.6931780861
 H       -13.2303089510        4.9705756847      -24.0675990578
 H       -11.7612822568        5.2227670509      -23.0252423903
 H       -15.9399316753        4.1543859476      -15.9939452344
 H       -15.7567567387        5.3146426546      -14.7837601858
 H       -15.6121240030        3.8007446178      -14.3045719377
 H       -12.3903179008        6.0210898941      -16.1771436436
 H       -13.0240026425        6.2893424291      -14.6016497227
 H       -14.1549598544        6.5535834807      -15.9687230984
 H       -14.2095299481       -0.3337959884      -14.5877420638
 H       -14.4685385710       -0.8825583019      -12.8485821380
 H       -14.0048465945       -2.0162933587      -14.0837660040
 H       -12.6622990358       -1.7726585796      -11.4539550129
 H       -10.9693706803       -1.3699540810      -11.8518035401
 H       -11.7584047380       -2.7506562234      -12.6439697288
 H       -10.1002270784        1.8891541584      -18.5522375795
 H        -8.7650353626        3.0412756952      -18.4490904514
 H       -10.1825176086        3.2239531890      -17.3053464556
 H        -6.9727038886        1.5618432338      -18.2417725153
 H        -7.9812584590        0.1741372353      -18.3982224693
 H        -6.9023963810        0.2045877744      -17.1116605382
 H       -10.6934305491        6.2746015756      -13.7479201904
 H        -9.8838139913        7.7446157854      -14.4169325039
 H       -10.0203159895        7.4076718237      -12.6180027083
 H        -7.9606154070        8.5278636016      -13.1898925184
 H        -7.2535439650        7.7900823667      -14.6178130984
 H        -6.4932758639        7.4506907173      -13.1198000627
 H        -5.0478611426        7.5271581112       -8.3979282397
 H        -4.5423346284        7.8966535564      -10.0291340348
 H        -3.3603720422        7.4740680846       -8.7518824383
 H        -3.0561732730        4.4629318409      -10.7865371936
 H        -2.2398282379        5.5676563084       -9.6245287767
 H        -2.8502051647        6.1248786857      -11.1454568292
 H        -6.7442896096       -1.4283385236       -6.2039772519
 H        -6.4194305649       -1.5467651563       -7.9431202878
 H        -7.0702160303       -0.0358975046       -7.2470207240
 H        -4.8883882400       -0.3736755471       -4.6095136947
 H        -3.7201131899        0.7324856857       -5.4293186320
 H        -3.5416142487       -1.1879140248       -5.4207726760
 H         0.7532444600       -2.1910559710      -11.7068905023
 H         1.9960354543       -3.4097151433      -11.3118355211
 H         1.9900104571       -1.8600730071      -10.5456933492
 H         0.6625026349       -5.0971433726       -9.8058647101
 H        -0.2886694996       -4.4216720620      -11.2046070511
 H        -0.9765454038       -4.7783319806       -9.5126226887
 H         3.2420768820       -4.6072854629       -3.0683955301
 H         2.0797670227       -5.4999556500       -4.1174126698
 H         2.4443857932       -3.7667120656       -4.3059486839
 H         4.9528665309       -3.1199076624       -5.0680906743
 H         6.1055546143       -4.5342802126       -5.1368609797
 H         5.2889510449       -3.9681864707       -3.5616843377
 H         4.3365026386      -10.9706045857       -1.7980785296
 H         2.5534716125      -10.8093987740       -1.4057357333
 H         3.9064079414      -11.0401939850       -0.1888009315
 H         3.3377801423       -7.3259341752        0.4821851772
 H         3.1531865108       -8.9361574316        1.1875126158
 H         1.9356444557       -8.3444371090       -0.0250757871
 H        10.2358921791      -10.8920146844        0.1531802274
 H         8.5511460112      -10.9814895571        0.0162100857
 H         9.3382525824      -10.1431135732        1.4524116858
 H        10.5054753138       -7.3986758986        0.5790121802
 H        11.1928455801       -7.6533049343       -1.0052159375
 H        11.5837293627       -8.6706388701        0.3185819315
 H         8.7541283418      -11.5921595845       -7.7360178896
 H         9.9693081086      -11.5847069001       -6.4440140846
 H         9.8538874695      -10.2960796078       -7.6355443147
 H         8.2142482141       -8.3800120192       -7.5375890382
 H         6.8474327097       -8.5634082793       -6.4875013239
 H         7.1006786480       -9.5952791496       -7.8707904569
 Na        6.8867034767       -8.3612680812       -3.4325921168
 Na      -10.0752368205        3.0145952531      -13.6622581348
