232

 C         6.9559556299      -12.4200964383       -5.5291172313
 C         7.2103148845      -10.9001661434       -5.4428485664
 O         6.4417488086      -10.2316026721       -4.7742409579
 C         8.2837271034      -10.1318773849       -6.2393922156
 C         9.1431785356       -9.3294250028       -5.1195667368
 O         8.8923759753       -8.1729256518       -4.8329525137
 C        10.2744376793      -10.0452352143       -4.4176600311
 C        10.7370861974       -9.2362118315       -3.1914299263
 C         9.6723640640       -9.6021018817       -2.0877264598
 O         8.7809352426      -10.3627086986       -2.3557789720
 C         9.6325474826       -9.0613358606       -0.6138660476
 C         8.2994606406       -8.1421525181       -0.5697242459
 O         8.0694155188       -7.3588116458       -1.4577629313
 C         7.2960246858       -8.1151286276        0.6989149526
 C         5.8767944681       -7.7883331253        0.1870117495
 C         5.3469389753       -8.7263614339       -0.7638314824
 O         6.0052380150       -9.3720666623       -1.6100164729
 C         3.8015634827       -9.0654601849       -0.8667278799
 C         3.4155524636       -8.2446969368       -2.1788525641
 O         3.1002717224       -7.0779931960       -2.1245022878
 C         3.6976602048       -8.8266356824       -3.6392940031
 C         3.5581403004       -7.7861299015       -4.7469741050
 C         4.5367712635       -6.5921571283       -4.6336862869
 O         5.7104066522       -6.7194474551       -4.3639922757
 C         4.0487818865       -5.1660809347       -4.8791686627
 C         3.5194182216       -5.0848599972       -6.4484393054
 O         3.3843799480       -6.0567519599       -7.1582410291
 C         3.2136875355       -3.7520016205       -6.9804621816
 C         2.4442619593       -3.9128541603       -8.3110594729
 C         1.1569284161       -3.1372139160       -8.3871383228
 O         0.6492449903       -2.6562542374       -7.3965936394
 C         0.4443174064       -3.1224452584       -9.7763389508
 C        -0.8121828985       -2.0344613419       -9.6630323821
 O        -0.6555152791       -1.0246943930      -10.2825881242
 C        -2.0880926306       -2.4203866267       -8.9186360932
 C        -2.6522293740       -1.2054426347       -8.2249976560
 C        -4.0303317072       -1.5023126353       -7.6563729291
 O        -4.4368681235       -2.6193662536       -7.6712718177
 C        -4.8617217294       -0.3416131449       -7.0314753368
 C        -4.6896908444        0.9797055496       -7.8496265157
 O        -4.6296189534        0.8632305243       -9.0899260289
 C        -4.6954724598        2.3523051414       -7.1423412920
 C        -4.1871306212        3.4053710344       -8.1655923234
 C        -4.7145508478        4.9031214067       -8.2387310586
 O        -5.5271083612        5.2066587533       -7.4161633796
 C        -4.4124161350        5.7659803683       -9.4800715943
 C        -5.5601924204        5.5573012943      -10.5199083707
 O        -5.3059121825        5.4150241356      -11.7057513438
 C        -7.0174254079        5.5220278187       -9.9750370573
 C        -7.9748863224        6.2462691984      -10.8661933308
 C        -8.2712960030        5.5277325684      -12.2142621756
 O        -8.5435130149        4.3402706102      -12.2294461623
 C        -8.4029463638        6.4579269922      -13.5709567863
 C        -8.1930256633        5.4025008287      -14.7803049536
 O        -9.1763135629        4.9416367782      -15.3873943019
 C        -6.8483590800        4.7551444835      -14.9790195159
 C        -6.9568634552        3.7032163170      -16.1774465787
 C        -7.9951139638        2.5739406677      -15.8648856806
 O        -8.0515383366        2.3439889563      -14.6353132770
 C        -8.7108293962        1.6376029732      -16.8563056641
 C        -9.5260914990        0.5706626520      -15.9134800742
 O       -10.4145186822        1.0086765694      -15.1543848561
 C        -9.1058988475       -0.8892910812      -15.7846701475
 C       -10.0420872371       -1.6703385498      -14.6963828359
 C       -11.5879471787       -1.4375881860      -14.7622562981
 O       -12.2022511261       -1.7981618416      -15.7215948843
 C       -12.2484105354       -0.9889203593      -13.4975361129
 C       -11.8933201701        0.6270024912      -13.1378892713
 O       -10.7543504973        0.7833330090      -12.6703042133
 C       -12.9733812814        1.7417934159      -13.0926420280
 C       -13.3895770821        2.3245465458      -14.4430942620
 C       -12.9010587100        3.7504754664      -14.5962464343
 O       -12.0053958176        4.2648880003      -13.9641563342
 C       -13.7648344889        4.5252869876      -15.6788647666
 C       -13.3974724872        3.7869465172      -17.0065038674
 O       -12.5688827324        2.8950067299      -17.0855729853
 C       -14.1808371391        4.3992902314      -18.2171735137
 C       -14.0421267541        3.6660309129      -19.5757259322
 C       -13.2590567835        4.5030623022      -20.6431147170
 O       -12.7455975499        5.5410159753      -20.3890095893
 C       -13.2995506211        4.0022715984      -22.1357697070
 C       -12.4563202926        2.6956035216      -22.3107379066
 O       -11.7530416318        2.2648850229      -21.4277432210
 C       -12.4579716282        2.0800383673      -23.7707172191
 C       -14.7728104300        3.6224494960      -22.4032798589
 C       -12.8274509001        5.0566367288      -23.0541504761
 C       -15.2381891779        4.4829185548      -15.2626219980
 C       -13.2625687476        5.9855284108      -15.6148443523
 C       -13.7912146706       -0.9569463003      -13.8699849642
 C       -11.9437682706       -1.6550027117      -12.2124678205
 C        -9.6111926113        2.4254670855      -17.8356028594
 C        -7.7245188792        0.8437363840      -17.6064076890
 C        -9.9035390388        6.9716753620      -13.5515066249
 C        -7.3661191327        7.5857299896      -13.5936210560
 C        -4.3185870179        7.2448985207       -9.1148755633
 C        -3.0262037435        5.4921720293      -10.2469149601
 C        -6.2880421447       -0.8670505856       -7.1254361811
 C        -4.3110700467       -0.2606433845       -5.4937726726
 C         1.3891096836       -2.5634275769      -10.9544379014
 C        -0.1271833748       -4.5903384252      -10.1752080690
 C         2.9936398417       -4.7478903921       -3.8361685630
 C         5.2247369120       -4.1961164797       -4.8125350298
 C         3.5801057591      -10.5275854122       -1.0333658187
 C         2.9682332745       -8.5474055478        0.3863618913
 C         9.5789493077      -10.2455866870        0.4323234521
 C        10.7514091087       -8.0685524875       -0.1846231137
 C         9.2617853142      -11.0275462662       -7.0495241602
 C         7.6702541242       -9.0216052439       -7.1760996961
 H         6.9924551246      -12.6991066520       -6.5773019117
 H         6.0362720242      -12.6182509335       -5.1101649792
 H         7.7400771762      -12.9197729910       -4.9501856572
 H        11.1384618007      -10.2607640488       -4.9339666915
 H         9.9978691882      -10.9143393585       -3.9412007586
 H        10.7741080061       -8.1218039507       -3.2792718823
 H        11.6594027325       -9.5306449364       -2.8292158948
 H         7.5714444877       -7.3342645874        1.4910951101
 H         7.2887877118       -9.1979543270        1.0680347610
 H         5.7919073037       -6.7761126583       -0.2613632838
 H         5.2258819472       -7.6999522762        1.1189358510
 H         3.0283537321       -9.6323497728       -3.8605077642
 H         4.7290524006       -9.2421251388       -3.7847653468
 H         2.5393224153       -7.4402249065       -4.8650673488
 H         3.5825211900       -8.4103736542       -5.6331509792
 H         4.1458722806       -3.2871280908       -7.0141803302
 H         2.5779132929       -3.1859564853       -6.3323017397
 H         2.3007839489       -4.9680584176       -8.4954227444
 H         3.1086401010       -3.6136648630       -9.1522580363
 H        -1.9181262585       -3.0450940093       -8.0932129450
 H        -2.7406799731       -2.8041605346       -9.5502959204
 H        -2.6997007195       -0.4123696300       -8.9056309141
 H        -1.9179951311       -0.8777249388       -7.4510781813
 H        -4.0065056057        2.2290750605       -6.2812342516
 H        -5.6633502154        2.6113956362       -6.7787657703
 H        -4.3344796294        3.0119669874       -9.1862751455
 H        -3.1497971904        3.5850444204       -7.9910193907
 H        -7.1637951116        5.8314013207       -8.8663387998
 H        -7.4030330319        4.4404573389      -10.0362569920
 H        -7.6456170209        7.2363882897      -11.0661289036
 H        -9.0180294615        6.2879926314      -10.5522176608
 H        -6.5443538903        4.2125146467      -14.0690554609
 H        -6.0563153442        5.4686128660      -15.2698518280
 H        -6.0447272789        3.2503377811      -16.5039002549
 H        -7.2136224434        4.2146234250      -17.1589723393
 H        -8.1462827861       -1.0024112032      -15.4219362803
 H        -9.3726347421       -1.4372857769      -16.7263474687
 H        -9.6991619551       -1.3771191587      -13.7360782205
 H        -9.9403170803       -2.7053329388      -14.6820050792
 H       -12.3719281288        2.5338236900      -12.6506514498
 H       -13.8053136103        1.4448610198      -12.4246996500
 H       -14.4366049435        2.2309588739      -14.6076351953
 H       -12.9787851666        1.6267342864      -15.2474469206
 H       -13.8098251232        5.4083887393      -18.3450993295
 H       -15.2523562154        4.6025457562      -17.9294322064
 H       -15.0838433893        3.4883531266      -19.7767675889
 H       -13.4866569520        2.7471299786      -19.4734320199
 H       -13.1227158334        2.5919160176      -24.5254691870
 H       -12.6342017427        1.0272683899      -23.7659677582
 H       -11.4397198212        2.2336483934      -24.0805579107
 H       -15.4797744570        4.3273965467      -21.8989130206
 H       -15.1802298390        2.6050682935      -22.0159579688
 H       -15.0445909330        3.6425185785      -23.4994684838
 H       -12.7905224166        5.9698167232      -22.5018956700
 H       -13.6784954784        5.0476724034      -23.8242846669
 H       -11.7754359625        4.8258822687      -23.4194741035
 H       -16.0371775565        4.0667173122      -15.9476424344
 H       -15.6663115586        5.4581946903      -15.1031849294
 H       -15.4277762238        4.0638974750      -14.2550487900
 H       -12.1784079665        6.0138295545      -15.8330600281
 H       -13.3337078704        6.2932887273      -14.5520841021
 H       -13.8897283867        6.5945398697      -16.2033969103
 H       -13.8655777471       -0.3039317848      -14.7381200665
 H       -14.4281057110       -0.6020676338      -13.0386286361
 H       -14.1981515966       -1.8824356488      -14.1295239892
 H       -12.7390741235       -1.3833349011      -11.5022177134
 H       -10.9478535980       -1.4418535176      -11.7728071043
 H       -12.0660726871       -2.7841377529      -12.3690306411
 H        -9.8523187505        1.7349556542      -18.6663003129
 H        -9.1063694615        3.2834313406      -18.2695508717
 H       -10.5834878953        2.7764877509      -17.3070962009
 H        -7.1034378685        1.4150330510      -18.3179620860
 H        -8.2019707869        0.0262483366      -18.1454419397
 H        -7.0122521834        0.2774410270      -16.9650720196
 H       -10.4823963926        6.0753918807      -13.8989229997
 H        -9.9873912687        7.7002246683      -14.3260896294
 H       -10.3142147613        7.2597886518      -12.6336992686
 H        -7.4520673373        8.1219234231      -12.7019360432
 H        -7.6378252934        8.2723538714      -14.3768375800
 H        -6.3292070072        7.2820177424      -13.8014092465
 H        -5.1670284079        7.5270936539       -8.3999781199
 H        -4.3427791870        7.9531948808       -9.9151460402
 H        -3.4359802954        7.3962204877       -8.4677080432
 H        -2.8680634243        4.6467215670      -10.8750870706
 H        -2.2550362704        5.5759348563       -9.4657449587
 H        -2.8029378577        6.3744517501      -10.9233420344
 H        -6.3861981031       -1.7276114884       -6.5190171657
 H        -6.4587577895       -1.2368848360       -8.1772882247
 H        -7.0695463837       -0.1130966266       -6.8333664678
 H        -5.2278619228        0.1229808412       -4.9327753814
 H        -3.5675727315        0.5136435650       -5.3313750063
 H        -4.1459166739       -1.2255117886       -5.0145027339
 H         0.8925567569       -2.4800430747      -11.9430199481
 H         2.2750300419       -3.1788335980      -11.1532373301
 H         1.7967283943       -1.5895631727      -10.7511505357
 H         0.6414941608       -5.3702726336      -10.0040532150
 H        -0.5256692052       -4.6339666796      -11.1177091943
 H        -0.8153884354       -4.8821442185       -9.3533764861
 H         3.3861816898       -4.8832789340       -2.8165264816
 H         2.0135397258       -5.3434671230       -3.9537894234
 H         2.7931612785       -3.7090442717       -3.8110351974
 H         4.9765936516       -3.1634472070       -5.1352775336
 H         6.0890339078       -4.5595099509       -5.3861546536
 H         5.4768171983       -4.0691940015       -3.7658670054
 H         4.3003449252      -10.9954835424       -1.6729706022
 H         2.5921819648      -10.7359472177       -1.4073304736
 H         3.8208804010      -10.9810280811       -0.0191664265
 H         3.0877790905       -7.4754258512        0.5475559607
 H         3.2931858843       -9.0231490185        1.3807813833
 H         1.9169016657       -8.7493498560        0.1998767032
 H        10.3146402714      -11.0501908489        0.3038652320
 H         8.6076838688      -10.7806177855        0.3219287045
 H         9.6671572434       -9.7748298724        1.3645949644
 H        10.4820100687       -7.4195719849        0.6387644789
 H        11.1729182530       -7.4623580124       -0.9980733411
 H        11.6614143132       -8.5774673977        0.1132841193
 H         8.8215801914      -11.7223726627       -7.7368861442
 H         9.9532997271      -11.5476678056       -6.4043341922
 H         9.8636990071      -10.3527114489       -7.6612762045
 H         8.3442405058       -8.1798446804       -7.3192234573
 H         6.7589253075       -8.5763291573       -6.6925258344
 H         7.4239551479       -9.2661583868       -8.2177026834
 Na        7.0068692744       -8.3971201211       -3.5824788068
 Na      -10.0624345935        3.0622529381      -13.6700451575
