232

 C         7.2190494750      -12.3344555293       -5.6716995014
 C         7.1948749833      -10.8610523226       -5.5579619765
 O         6.3363118516      -10.1469363633       -5.0447658515
 C         8.2673289209      -10.1556739330       -6.3555654664
 C         9.2117595050       -9.3690933710       -5.2126913305
 O         8.8318144109       -8.2443486491       -5.0019341503
 C        10.4767897149       -9.8551531996       -4.5728696927
 C        10.6951980165       -9.2758446851       -3.1629521283
 C         9.6719030889       -9.6878665035       -2.0441537314
 O         8.9004995539      -10.6496854471       -2.2003287894
 C         9.7866568028       -8.9053308049       -0.6959177203
 C         8.4155457350       -7.9529372253       -0.6800577611
 O         8.1395343169       -7.2786495768       -1.6492290948
 C         7.4469854445       -8.2681437692        0.5154198579
 C         5.9099742494       -7.9073111714        0.3572054736
 C         5.3216570718       -8.9204002593       -0.7210447808
 O         6.0416789980       -9.2372482905       -1.6598744804
 C         3.7552973215       -9.1835037651       -0.7615679916
 C         3.4142999408       -8.2671392787       -2.0275522678
 O         3.0242889103       -7.1371824593       -1.8850176827
 C         3.6564010138       -8.8136882651       -3.4219213282
 C         3.3746558998       -7.7084622022       -4.5458828547
 C         4.5305360537       -6.6584011191       -4.5140371150
 O         5.6836611738       -6.8896798438       -4.1992000143
 C         4.1865472844       -5.1149576459       -4.7607573064
 C         3.5888532579       -5.1038504305       -6.2088741845
 O         3.5830825576       -6.1575455383       -6.8564609141
 C         3.0726795453       -3.8249772845       -6.8695255051
 C         2.6047044207       -3.9047026869       -8.3320417335
 C         1.2418372001       -3.2063094751       -8.5129619918
 O         0.6469121814       -2.6334102277       -7.5822068959
 C         0.5576101550       -3.1935752020       -9.8553953120
 C        -0.6681211305       -2.1339721217       -9.6261056875
 O        -0.4310561110       -0.9749660148       -9.9807012423
 C        -2.0040177600       -2.6654573688       -8.9108483983
 C        -2.6502726765       -1.3557635868       -8.2986248270
 C        -3.9364620698       -1.5481309615       -7.5379528457
 O        -4.3994285422       -2.6908376177       -7.3659516829
 C        -4.9061665612       -0.2291974740       -6.9569200627
 C        -4.7535524401        0.9878322153       -7.9639946424
 O        -5.0295028328        1.0064851877       -9.1345133860
 C        -4.6624810992        2.4223349719       -7.2814918046
 C        -3.9843445858        3.4405785078       -8.1716386541
 C        -4.7073179168        4.7415091149       -8.2152668464
 O        -5.5865226808        4.9684961359       -7.4151773122
 C        -4.4803575480        5.8309224850       -9.3995418475
 C        -5.6249211654        5.6966412061      -10.3736029910
 O        -5.4607311723        5.3546105202      -11.5262408759
 C        -7.0836449849        5.8794056237       -9.7968308411
 C        -8.1279948683        6.3223493408      -10.8842709548
 C        -8.1175404105        5.4462895546      -12.1837498755
 O        -8.3160967540        4.2599383726      -12.0939094717
 C        -8.3220148398        6.2857957630      -13.5404903088
 C        -8.3155471482        5.3265527858      -14.7694220503
 O        -9.3298018378        4.9267237497      -15.2449674559
 C        -6.9554324517        4.7039237600      -15.2492935999
 C        -7.1328744356        3.5636331083      -16.3098681481
 C        -7.9439329482        2.4489600051      -15.7618691063
 O        -8.0139413194        2.3014904673      -14.5791971005
 C        -8.7075391454        1.4883689526      -16.7781335198
 C        -9.6243497384        0.5785693497      -15.9409043317
 O       -10.7119900359        1.0164209273      -15.6019001165
 C        -9.2156765106       -0.8587702221      -15.7115307728
 C       -10.0080690669       -1.5915995211      -14.5954342885
 C       -11.5140373947       -1.3645763786      -14.7055385510
 O       -12.0908402427       -1.7666443133      -15.6913136696
 C       -12.3801884493       -0.8528979167      -13.5498501052
 C       -11.8811858525        0.5993409105      -13.0508950452
 O       -10.7509707810        0.8240915627      -12.7528063155
 C       -12.9948096024        1.7988133931      -12.9531458850
 C       -13.2434824614        2.3028744158      -14.4545290056
 C       -12.9301083551        3.8497854494      -14.5926129326
 O       -12.1032879338        4.3692579398      -13.8246093599
 C       -13.6772062015        4.7141528502      -15.7718961075
 C       -13.5572185043        4.0278873171      -17.1976134565
 O       -12.8646579651        3.0119041591      -17.2967226779
 C       -14.2881539612        4.6086176632      -18.4010149528
 C       -14.1238445707        3.6794507534      -19.6172275136
 C       -13.5363439730        4.4738090846      -20.7118971670
 O       -12.9960539817        5.5727293619      -20.4758129683
 C       -13.5365788797        3.9479132412      -22.1915261078
 C       -12.5165179571        2.6633089185      -22.2910437574
 O       -11.6720121457        2.5312945900      -21.4412719675
 C       -12.5541165609        1.8521696023      -23.5111522212
 C       -14.9371000139        3.6139135077      -22.6533349848
 C       -12.8931156493        5.0981133867      -23.1267151615
 C       -15.2166910244        4.7119526015      -15.5352500423
 C       -13.0641682766        6.1367480106      -15.7818499751
 C       -13.8513534642       -0.9015191770      -13.7689398084
 C       -12.1478180424       -1.8702089005      -12.2996941499
 C        -9.6690167485        2.3122243332      -17.6374035336
 C        -7.5603417374        0.8383825554      -17.6591992206
 C        -9.7332857525        6.9246781430      -13.5064444998
 C        -7.1665800169        7.3996448698      -13.7981063476
 C        -4.4511153939        7.1977931789       -8.7251626008
 C        -3.0953978975        5.4521833975       -9.9782938046
 C        -6.5374221921       -0.6295525766       -7.1571527762
 C        -4.5546058768       -0.0202554119       -5.4986261398
 C         1.5255836608       -2.7237693017      -11.0198222605
 C        -0.0038499509       -4.6057753570      -10.1904634627
 C         3.1016916846       -4.5518991139       -3.7763512517
 C         5.4428910736       -4.2710083851       -4.8594998717
 C         3.4991373589      -10.6957955661       -1.1301085302
 C         2.8610823235       -8.6839641049        0.3655291775
 C         9.8771150688       -9.9535498927        0.4864606409
 C        10.9119659790       -7.8478599604       -0.5945823288
 C         9.2203160904      -11.1472512465       -7.1723186574
 C         7.7552668735       -9.0603700869       -7.3362824892
 H         7.0849308230      -12.4969564677       -6.7599164169
 H         6.3714850744      -12.8077069122       -5.0485303710
 H         8.1649740594      -12.7106462554       -5.2967174693
 H        11.4502128689       -9.5296669213       -5.0853660704
 H        10.6148739605      -11.0059122843       -4.3985225737
 H        10.9334729660       -8.2002554266       -3.2681199769
 H        11.6767443315       -9.6371113315       -2.6073053817
 H         7.7783517432       -7.7633718090        1.3728665034
 H         7.5888999552       -9.2944876167        0.4774468415
 H         5.8667731129       -6.8769872058        0.0187157243
 H         5.4799963860       -7.9260652564        1.3268056015
 H         3.0538861748       -9.7441375659       -3.6527225121
 H         4.6836526385       -9.1220766131       -3.3403243316
 H         2.3235468936       -7.3401123197       -4.4602569914
 H         3.2713068891       -8.1541368461       -5.5353824086
 H         3.9367998904       -3.0574076108       -6.8565909135
 H         2.2279527217       -3.3973890030       -6.2504819289
 H         2.4878999040       -4.9319016559       -8.7305268466
 H         3.4340162022       -3.4718508961       -8.8579084170
 H        -1.8185287114       -3.3721193138       -8.0641367286
 H        -2.7805618219       -3.0774885830       -9.7275452782
 H        -2.7741457168       -0.6485530179       -9.1817699976
 H        -1.9618465514       -0.8695959470       -7.6326541362
 H        -4.1696467880        2.3877478435       -6.3477128938
 H        -5.7436089796        2.7115405123       -7.0321873929
 H        -3.9905687646        3.1635969388       -9.2289980324
 H        -2.9393338574        3.5872763336       -7.7890416643
 H        -7.1668067374        6.5580732848       -9.0158112612
 H        -7.4994824829        4.9999591340       -9.3896837227
 H        -8.0755341731        7.3886423856      -11.2710469355
 H        -9.1886386791        6.1518476327      -10.5730608527
 H        -6.2870468967        4.3020371240      -14.5132522760
 H        -6.4169050965        5.4487655432      -15.8492495507
 H        -6.2551525757        3.1997939869      -16.9094207214
 H        -7.6590069482        3.9280519479      -17.1532072043
 H        -8.1677763280       -0.8900996797      -15.2403696083
 H        -9.3677147018       -1.5093626235      -16.5329948804
 H        -9.6179218756       -1.4161337183      -13.5451675782
 H        -9.9517482810       -2.7379561470      -14.7492552782
 H       -12.5169571921        2.5892251091      -12.3918857426
 H       -13.9574282680        1.5212755201      -12.6244679533
 H       -14.2012015634        1.7900693728      -14.7609127833
 H       -12.5503989643        1.9825553565      -15.2184160256
 H       -13.8067745749        5.5812135929      -18.6291085647
 H       -15.2468878061        4.9086202948      -18.0928311932
 H       -15.0834299864        3.1905580002      -19.8736912092
 H       -13.3455897705        2.9617002170      -19.2457064325
 H       -12.4218467197        2.5219225066      -24.3699857204
 H       -13.5749398064        1.4243683722      -23.5930084354
 H       -11.7407882062        1.1096104589      -23.5195455997
 H       -15.6604318332        4.4278826504      -22.5849999122
 H       -15.4765002947        2.8470079328      -22.1874428155
 H       -14.8814736753        3.4546070898      -23.7085163208
 H       -12.1032226114        5.6112036979      -22.4787282005
 H       -13.6710791932        5.7338156625      -23.4253982536
 H       -12.3450645929        4.6183522909      -23.9106449886
 H       -15.6075118416        3.7312473701      -15.4093431202
 H       -15.8489814774        4.9902099992      -16.4170137421
 H       -15.6294107321        5.2354503190      -14.6669904774
 H       -12.0460514967        6.1194676359      -15.4767097819
 H       -13.6035148418        6.7966148396      -15.1342875160
 H       -13.1787941151        6.4996794743      -16.8360860941
 H       -14.2450224521       -0.3528525433      -14.6009025064
 H       -14.2915836173       -0.5262854993      -12.8875297980
 H       -14.2227956627       -1.9521976320      -13.8070539342
 H       -12.3959194660       -1.2812489093      -11.4009201647
 H       -11.1193110507       -2.1515864349      -12.1510400719
 H       -12.7568715012       -2.7695437506      -12.3670608022
 H        -9.8561760913        1.7250109648      -18.4669575790
 H        -9.2240362579        3.2431630640      -17.9783659813
 H       -10.5809845353        2.5110768738      -17.1497327822
 H        -7.1066135812        1.5978444661      -18.2839869041
 H        -7.9702416966        0.0741575400      -18.3301193103
 H        -6.7123419617        0.3390794358      -17.1885807768
 H       -10.5098335285        6.2331592500      -13.4070889573
 H        -9.7565833220        7.4574685938      -14.4870179107
 H        -9.7518877877        7.6829654251      -12.6637886340
 H        -6.3002807486        7.3816356492      -13.0880650314
 H        -7.5999217942        8.4125270085      -13.8249119753
 H        -6.7964490467        7.1760130759      -14.7815267461
 H        -5.4119942342        7.4561435449       -8.3896510009
 H        -4.1994168963        7.9700676988       -9.4708523908
 H        -3.8445389050        7.2805228243       -7.8256091766
 H        -3.3033711110        4.3954457162      -10.4000012431
 H        -2.2869147501        5.3411748260       -9.2640855816
 H        -2.7472524193        6.0708624939      -10.7841704308
 H        -6.8023986666       -1.7062509983       -7.3585611318
 H        -7.0001151757       -0.1003343946       -7.9637325653
 H        -6.9542422631       -0.3240750829       -6.2391252288
 H        -4.5696800986        0.9379127007       -5.1020487767
 H        -3.6199895428       -0.4441299355       -5.2885821041
 H        -5.2652862886       -0.5195642875       -4.9055432631
 H         1.2300862184       -3.1044081829      -11.9432482250
 H         2.5457231596       -3.1192820856      -10.9240558343
 H         1.5454345133       -1.6513166575      -11.1968995295
 H         0.7272223322       -5.1794669376      -10.6910549200
 H        -0.8142116623       -4.3572456231      -10.9404162448
 H        -0.2633476584       -5.1957811955       -9.3445464707
 H         3.4665974526       -4.6049068146       -2.7685087734
 H         2.2232549217       -5.1149038194       -3.8167983172
 H         2.9688336295       -3.4452482195       -3.8352839753
 H         5.3470450765       -3.2477954564       -4.6851315154
 H         5.7646641628       -4.2769496698       -5.8811247302
 H         6.1827691932       -4.6957208198       -4.1857088895
 H         4.1892844191      -10.9459821982       -1.9873748288
 H         2.4861717203      -10.8584183862       -1.5356614237
 H         3.6435250016      -11.3057191612       -0.3260015950
 H         2.6373727239       -7.6155341038        0.2555271566
 H         3.3962140711       -8.7715211379        1.2590052589
 H         1.9613500535       -9.3314788745        0.3654811455
 H        10.8355879812      -10.4264556394        0.4234739248
 H         9.2462585030      -10.7673708510        0.2250957875
 H         9.6608394540       -9.5037468527        1.5067580346
 H        11.0559938363       -7.5557226052        0.4540811893
 H        10.6154500804       -6.9712853322       -1.1723787286
 H        11.8708100287       -7.9070784701       -1.0947233691
 H         8.6570669702      -11.4166209646       -8.0833692990
 H         9.5782281241      -12.0726641396       -6.6960146154
 H        10.0901405342      -10.5933726990       -7.5175185101
 H         8.5786661242       -8.3668161706       -7.6064994141
 H         6.9047385800       -8.5027103991       -6.9871468622
 H         7.4886164864       -9.4090714307       -8.3208040507
 Na        7.1945571663       -8.4158105334       -3.4522047797
 Na       -9.9997315627        3.0126549040      -13.5607309887
