232

 C         7.2069037103      -12.2301816187       -5.9702597655
 C         7.4744061608      -10.7915590705       -5.7255528728
 O         6.7348521823      -10.2323592913       -4.9158207960
 C         8.5988765026      -10.1890077289       -6.5851714100
 C         9.3755108749       -9.3419882764       -5.4423290037
 O         8.8913458803       -8.2963186391       -5.0853525905
 C        10.4960686601      -10.1007662091       -4.6267437658
 C        10.9466729318       -9.3429391865       -3.4440837891
 C         9.9314259094       -9.4449910478       -2.2761904137
 O         9.0873092055      -10.3505768088       -2.2352178351
 C        10.0213017866       -8.5919174292       -1.0664899132
 C         8.5236232069       -8.1845494668       -0.8048712462
 O         8.0320090456       -7.3400850088       -1.5184602170
 C         7.6181116360       -8.6869048736        0.3714561486
 C         6.2013666371       -8.2151987768        0.1742109320
 C         5.4390566679       -9.1922326214       -0.7290913115
 O         5.9932193023       -9.8346477804       -1.6051237715
 C         3.8971586110       -9.2657281862       -0.7145395181
 C         3.3333480275       -8.2763911457       -1.7129209354
 O         2.7882777039       -7.2624364028       -1.2482341268
 C         3.2481497254       -8.6041439290       -3.2516484052
 C         3.2029503920       -7.4805208020       -4.2617811475
 C         4.4933975746       -6.5660654273       -4.1504281042
 O         5.4741459213       -6.9061116779       -3.5977497271
 C         4.3804260702       -5.1210491597       -4.7477839134
 C         3.7936940716       -5.2259316737       -6.1807948982
 O         3.9041558358       -6.2288732639       -6.9292720112
 C         3.0559194005       -3.9350278958       -6.6728161610
 C         2.5425837514       -3.9442705287       -8.1298023531
 C         1.2067903678       -3.1491824810       -8.3001559057
 O         0.6627667308       -2.6232628001       -7.3215590546
 C         0.4033752097       -3.0901745680       -9.6394791073
 C        -0.7427783708       -2.0443393493       -9.4962851869
 O        -0.5200289767       -0.8874467244       -9.8424469998
 C        -1.9812772126       -2.4667093300       -8.7636302615
 C        -2.9472459988       -1.2120578676       -8.6270703977
 C        -3.9992909167       -1.5183818215       -7.6578414455
 O        -4.1816713999       -2.6899183816       -7.4271791732
 C        -4.9371364059       -0.4160874397       -7.0139467422
 C        -4.6701434701        0.8444444800       -7.9220477376
 O        -4.9762675859        0.8123906514       -9.0894450488
 C        -4.0448347460        2.2503279451       -7.4191536736
 C        -3.9294579343        3.3063520151       -8.4961216586
 C        -4.8501650487        4.4775451609       -8.2573300459
 O        -5.7538571666        4.4654503614       -7.4681115609
 C        -4.6349693237        5.8212538713       -9.1701990694
 C        -5.9140903851        5.8414221931      -10.1778887864
 O        -5.6074125829        5.7268213195      -11.3428139178
 C        -7.3767227422        6.0006243877       -9.6597268862
 C        -8.2682905458        6.4960288294      -10.8160433086
 C        -8.2392035105        5.5471962083      -11.9969817243
 O        -8.6066322719        4.4045128308      -11.8392452910
 C        -8.1439669398        6.1167344000      -13.5081388495
 C        -8.2629088707        5.0734224827      -14.6356576941
 O        -9.2968509132        4.4817032919      -14.8365094014
 C        -7.0000534120        4.6509834146      -15.5066756984
 C        -7.1731898557        3.4321531713      -16.5124348638
 C        -8.0299117439        2.2679107776      -15.9201060224
 O        -8.0833765938        2.1041092323      -14.6945878164
 C        -8.7445477691        1.3953454274      -16.9443543204
 C        -9.6767911001        0.5952504787      -16.0718544352
 O       -10.7367144360        1.1498955595      -15.6623314683
 C        -9.3621539717       -0.8696448327      -15.7129181243
 C       -10.0690027679       -1.4613301001      -14.4235507208
 C       -11.5921242207       -1.3084986669      -14.6319501785
 O       -12.0660964242       -1.6236494418      -15.6612419282
 C       -12.4473700346       -0.7642285032      -13.4011757811
 C       -12.0752493645        0.8300924784      -13.0896216961
 O       -11.0109923239        1.0895842539      -12.6712451550
 C       -13.1956857640        1.9217629463      -13.1218815297
 C       -13.3168293379        2.3969547355      -14.5904265316
 C       -12.8131536525        3.8515759057      -14.8667244832
 O       -11.8996523537        4.3016251222      -14.2140123524
 C       -13.5888758476        4.7599953091      -15.8594405759
 C       -13.7516609391        4.0626519066      -17.2846347136
 O       -13.1746861796        2.9941053855      -17.4356205850
 C       -14.4202061985        4.7865545734      -18.5357225818
 C       -14.1293831215        3.8799988256      -19.7930483312
 C       -13.6727779819        4.7473458328      -21.0051469263
 O       -13.5229035184        5.9446898143      -20.9458829925
 C       -13.6973594183        3.9863132781      -22.3808655012
 C       -12.6246639492        2.7805257661      -22.0879449002
 O       -11.7594624947        2.9028435395      -21.2894075467
 C       -12.8347896971        1.5550425753      -22.9234950207
 C       -15.1597744506        3.6698343850      -22.8339874284
 C       -12.9592666955        4.8712685687      -23.5061777740
 C       -15.0133652309        5.0755613435      -15.1789696817
 C       -12.8687702171        6.1007345625      -16.1274929595
 C       -13.9919915131       -0.9906387184      -13.8881501439
 C       -12.0924386089       -1.4020971259      -12.0949279672
 C        -9.6322862384        2.2308175568      -17.9249228164
 C        -7.7791886921        0.5048761964      -17.7630791707
 C        -9.3574243185        7.0428730806      -13.7507538263
 C        -6.8862043866        7.1130290670      -13.7110946700
 C        -4.7582191923        7.0789826319       -8.2446026894
 C        -3.2645230698        5.7631423146       -9.9698217830
 C        -6.3712204193       -0.8322399777       -7.2054902351
 C        -4.6844425827       -0.1117661275       -5.5384627016
 C         1.3344929264       -2.7007168633      -10.8302192091
 C        -0.2933157131       -4.4336612217       -9.8187466332
 C         3.5055403451       -4.3328694436       -3.7163390776
 C         5.8070899382       -4.4634303226       -4.9657784734
 C         3.3373420739      -10.6737795042       -1.1285366694
 C         3.3512181830       -8.9681065054        0.6898571732
 C        10.6415165081       -9.4711351398        0.0953264947
 C        10.7865890822       -7.2305009030       -1.2015988105
 C         9.4825372378      -11.1622445948       -7.3586228585
 C         7.9802409010       -9.2161000833       -7.6518278463
 H         7.3774783614      -12.3288072657       -7.0630685570
 H         6.2151626832      -12.5880692640       -5.6600394001
 H         7.9047140713      -12.7784887009       -5.3916355072
 H        11.4758517542      -10.4231544506       -5.0997471685
 H        10.2019980299      -11.0783457028       -4.0999644915
 H        11.3079778684       -8.3471031580       -3.6993599450
 H        11.9050431508       -9.7514070966       -2.9042152043
 H         8.0827815371       -8.2877919001        1.2591967492
 H         7.5875653109       -9.7367296404        0.1998774580
 H         6.1410531029       -7.2636840745       -0.3690972648
 H         5.7512715899       -8.1410309916        1.1507702885
 H         2.3528209500       -9.3079926858       -3.2415127525
 H         4.1098699773       -9.1582670223       -3.6101595444
 H         2.2619567211       -6.8397303684       -4.2835703351
 H         3.1139782668       -7.9678368635       -5.2086640080
 H         3.9053597001       -3.2078886352       -6.5745463530
 H         2.2232898939       -3.6270566204       -6.0584035755
 H         2.2977877577       -5.0040291196       -8.2230575489
 H         3.2558338360       -3.7128198460       -8.8749632284
 H        -1.6330442502       -2.9532517419       -7.8029553503
 H        -2.4649501321       -3.2973479985       -9.3747351535
 H        -3.3349593785       -0.9588750092       -9.6343571204
 H        -2.3541218458       -0.4105091690       -8.2978044956
 H        -3.1284400576        1.9860670395       -7.0456871766
 H        -4.6712562749        2.5712883185       -6.5375150933
 H        -4.2967547090        2.8923195555       -9.4421832806
 H        -2.8928005772        3.6587410523       -8.6711176556
 H        -7.5909767199        6.6026072055       -8.8383225986
 H        -7.7019004504        5.0255134880       -9.2618970618
 H        -8.1581230744        7.5762400754      -11.1525846942
 H        -9.3606766270        6.3676158468      -10.5174069032
 H        -6.1889630953        4.4187848411      -14.8648479821
 H        -6.5742493359        5.4015529646      -16.2102916466
 H        -6.1824714092        3.0057005774      -16.9025498799
 H        -7.5675986614        3.7782429787      -17.4615538839
 H        -8.2594302215       -1.0969011387      -15.4448140353
 H        -9.6829301638       -1.4144590609      -16.5838395326
 H        -9.7363319800       -0.9906067341      -13.5005495748
 H        -9.9686495234       -2.6009632218      -14.3640765921
 H       -12.9214548625        2.7599240771      -12.5148838627
 H       -14.0144009556        1.3567147263      -12.7488727299
 H       -14.3712128852        2.4716535378      -15.0158164430
 H       -12.8602429776        1.5738069034      -15.1271778481
 H       -13.9973494300        5.7894141084      -18.6108011585
 H       -15.4465523650        4.9625764470      -18.3724438246
 H       -15.0987954303        3.3890250382      -20.0176075174
 H       -13.3544055675        3.1127069516      -19.5858329627
 H       -12.2435190472        1.6630675713      -23.8801231032
 H       -13.8729227271        1.5150561518      -23.1480626951
 H       -12.4518178197        0.7177051168      -22.3846240988
 H       -15.8977870013        4.4674138512      -22.8265288929
 H       -15.6262754096        2.8485306543      -22.2274345662
 H       -15.2709020829        3.4743794241      -23.9048071857
 H       -12.5703916037        4.0553273943      -24.1751260881
 H       -12.0789810558        5.2314187872      -22.9030475363
 H       -13.6263406630        5.6205537912      -24.0019097248
 H       -15.5658547992        4.1727371595      -14.8174169936
 H       -15.6989779099        5.5857459970      -15.8826216139
 H       -14.8802553174        5.6088561047      -14.2086631993
 H       -12.3640135620        6.1165603034      -17.0648069704
 H       -12.2019741137        6.2783704907      -15.2943760579
 H       -13.6237925728        6.9343657160      -16.1513198561
 H       -14.1104963581       -0.5720969719      -14.8543966401
 H       -14.7585191834       -0.6245798891      -13.2751413525
 H       -14.1255116092       -2.0751059454      -14.0497987603
 H       -12.8683317516       -1.3168698910      -11.3247271328
 H       -11.2828267860       -0.8408704419      -11.6672632024
 H       -11.7398284477       -2.4944930247      -12.1031492315
 H       -10.5953031440        1.8899981254      -17.8781110475
 H        -9.2695033112        2.1501743677      -18.9428549297
 H        -9.6657808941        3.3007471211      -17.6163108657
 H        -7.2685255249        1.1320655715      -18.5137781975
 H        -8.1908545657       -0.3129828521      -18.3573468159
 H        -6.9143417929        0.1714624101      -17.1188547676
 H       -10.2348128863        6.5185172799      -13.8637573401
 H        -9.0884301560        7.5923065255      -14.6534953910
 H        -9.3301207576        7.8367831304      -13.0241584572
 H        -6.3959756202        6.9649940979      -14.6392755494
 H        -6.2558946548        6.9830066062      -12.8599933893
 H        -7.2154952707        8.1321595728      -13.6878294489
 H        -5.2944092318        7.0005233141       -7.3037322173
 H        -5.0548432025        7.9559418697       -8.8217280138
 H        -3.6759478143        7.2901705850       -7.9994759931
 H        -3.0990707613        4.7948519727      -10.5259399993
 H        -2.5614109357        5.6974221271       -9.1536522178
 H        -3.0481797348        6.6721669628      -10.4870980599
 H        -6.7534043922       -1.5633280755       -6.4713391673
 H        -6.3557638096       -1.3773429030       -8.1926617101
 H        -7.0791953091       -0.0135844165       -7.2578298798
 H        -5.6265736340        0.0099444129       -5.0103809772
 H        -4.0626624652        0.6581925178       -5.3222723451
 H        -4.1624335143       -0.8923024467       -5.0855376627
 H         0.8335947179       -2.3144091582      -11.6626823258
 H         1.9328218037       -3.5496797371      -11.2298492604
 H         1.9469947475       -1.8709310164      -10.5647827044
 H         0.4285036310       -5.2169191450       -9.6962676605
 H        -0.6707524017       -4.4621691145      -10.8602605601
 H        -1.1371110840       -4.4947604301       -9.1597690373
 H         3.8438018584       -4.5341045548       -2.7030043762
 H         2.4392648382       -4.6246336845       -3.7535778415
 H         3.6755945822       -3.2305156705       -3.8492387355
 H         5.6807506934       -3.6491327169       -5.6140731457
 H         6.4872847372       -5.0702837128       -5.5353232204
 H         6.2385548674       -4.1761419019       -4.0122733391
 H         3.6194132745      -10.8223653957       -2.1715428371
 H         2.2679408340      -10.7183354801       -1.0634836814
 H         3.6329984886      -11.3967571550       -0.4753174579
 H         3.6599806799       -8.0236373028        1.1844288154
 H         3.6497650470       -9.8197609777        1.2561426737
 H         2.2453261394       -9.0787813563        0.6139224174
 H        11.5344834460       -9.9680235243       -0.2378892720
 H         9.8800392052      -10.0958186470        0.5598829356
 H        10.9631379574       -8.7326302772        0.9043305705
 H        10.5972654729       -6.7010993488       -0.2705151916
 H        10.6306145473       -6.5500893747       -2.0671082116
 H        11.8444085053       -7.3197869878       -1.2651187844
 H         8.9482946931      -11.6805325050       -8.1414065496
 H         9.8477320008      -11.9130855062       -6.6581857014
 H        10.3039358551      -10.6015700520       -7.7178700829
 H         8.6837803782       -9.1147550471       -8.5368662531
 H         7.8849130123       -8.2043094855       -7.1743455476
 H         6.9739338728       -9.4375828405       -7.9892071252
 Na        7.2070572062       -8.6866846987       -3.3609276703
 Na      -10.0130444091        3.0122104793      -13.2536133545
