232

 C         7.1398446594      -12.4470652481       -6.1676426697
 C         7.4588621375      -10.9534544324       -5.7816314472
 O         6.7872609684      -10.3253689267       -4.9889055282
 C         8.7137707504      -10.1379204544       -6.5854576796
 C         9.4260813402       -9.3633373330       -5.4865448227
 O         9.0011789788       -8.3307754623       -5.0187504004
 C        10.5682327722      -10.0640126712       -4.8567301684
 C        11.0108755024       -9.3908379340       -3.4562474789
 C         9.9592612306       -9.4181758571       -2.2700510974
 O         9.0300848106      -10.1705214718       -2.2918809576
 C        10.0665843834       -8.4330180062       -1.0126830808
 C         8.5607245394       -8.0864473334       -0.8495771232
 O         8.0373109156       -7.3546075136       -1.6649487058
 C         7.7513137010       -8.8437570275        0.2704338263
 C         6.2647697880       -8.4246887300        0.1446103796
 C         5.4398636695       -9.2983231617       -0.7563976617
 O         6.0045072285       -9.9298748373       -1.7026095848
 C         3.9026882579       -9.3985280347       -0.6515037245
 C         3.2521717222       -8.2106208869       -1.6199214661
 O         2.7766531445       -7.2078672808       -1.1734302694
 C         3.3697738953       -8.6152817239       -3.1571749381
 C         3.2456031412       -7.4242196401       -4.0621630058
 C         4.4573869717       -6.6274692338       -4.0873126800
 O         5.4861436307       -6.9594094299       -3.4969686992
 C         4.3525490871       -5.1576961970       -4.7601970329
 C         3.7884433094       -5.2013197013       -6.2072538664
 O         4.0008948620       -6.1423635858       -6.9191782042
 C         3.1491171298       -3.9226949800       -6.7267129212
 C         2.3700633655       -3.9947901677       -8.0253096609
 C         1.0654201026       -3.1477824166       -8.1138405060
 O         0.6387072183       -2.5459945035       -7.1733716947
 C         0.3977814434       -3.1237797074       -9.5346221506
 C        -0.6759800263       -1.8942720688       -9.4799998955
 O        -0.5520549748       -0.7889546177       -9.9120892872
 C        -1.9913245627       -2.3554385680       -8.8038628776
 C        -2.9588958632       -1.1271512869       -8.7082627352
 C        -3.9856331080       -1.5650637879       -7.5943855258
 O        -4.3246652070       -2.6746270477       -7.3395776537
 C        -4.8534177631       -0.3460092389       -7.0429318426
 C        -4.6091389154        0.8472045569       -7.9765032031
 O        -5.0714757553        0.6777607891       -9.1186246550
 C        -4.0042633790        2.1253916148       -7.4576880229
 C        -3.8950144651        3.2002115331       -8.5260748621
 C        -4.8891515744        4.4191203716       -8.2820734225
 O        -5.7704878563        4.3188925279       -7.4542888539
 C        -4.7001187751        5.7636035327       -9.0743154969
 C        -5.9317451561        5.8050241923      -10.1846662050
 O        -5.7302903896        5.7955683254      -11.3939648983
 C        -7.3058456152        5.9672315362       -9.7230789114
 C        -8.2031625864        6.5254549237      -10.7949639606
 C        -8.4008877951        5.5975799437      -12.0108761388
 O        -8.7265885365        4.4264847904      -11.8659884657
 C        -8.0902338325        6.1668449832      -13.5303451492
 C        -8.0629260800        4.9715871453      -14.5796429057
 O        -9.1995808739        4.5671088544      -14.9098245500
 C        -6.8235451153        4.6178074748      -15.3876098679
 C        -7.1890768790        3.5755396695      -16.4488414993
 C        -8.0280469392        2.3069765495      -16.0091330596
 O        -8.0841683580        2.0666909593      -14.8115666837
 C        -8.7533260319        1.3738517785      -17.0288793235
 C        -9.7348655849        0.5099729928      -16.0234731867
 O       -10.7331156647        1.0848344312      -15.4975910409
 C        -9.3822812265       -0.9139182021      -15.6623611271
 C       -10.0795572569       -1.4219267841      -14.3624849131
 C       -11.5941598079       -1.2641005495      -14.5988605938
 O       -12.1685958173       -1.6268631067      -15.6226384812
 C       -12.3930108376       -0.6666177028      -13.3556111043
 C       -12.2244623545        0.7755990548      -13.0964513319
 O       -11.1307534216        1.1214161838      -12.6034762879
 C       -13.2906756289        1.9035150416      -13.3016651070
 C       -13.4477373666        2.4648012934      -14.7353279771
 C       -12.8787068743        3.9061551102      -14.8681436316
 O       -11.8653385543        4.2593855487      -14.2986721133
 C       -13.5678079423        4.7897171615      -15.9601027103
 C       -13.6926998536        4.0301277799      -17.3515977449
 O       -13.3328241223        2.9107916373      -17.5643954085
 C       -14.3466919490        4.8636154077      -18.4803256910
 C       -14.1577957774        4.0186793019      -19.7839536833
 C       -13.9125224789        4.8553661370      -21.0186390497
 O       -13.6507518671        6.0235880287      -21.0524852888
 C       -13.6567213205        3.9468182676      -22.2754299593
 C       -12.7533298848        2.7846191776      -21.9643837202
 O       -11.7418286278        2.9608241906      -21.2663033397
 C       -12.9653753452        1.5229118538      -22.9144846273
 C       -15.0386342183        3.6070455701      -22.7733414554
 C       -12.9939611297        4.8014934318      -23.3988830501
 C       -14.9524945223        5.0668657179      -15.3610056389
 C       -12.7624941583        6.1057568125      -16.1156963674
 C       -13.9704520941       -0.8496543141      -13.7721960783
 C       -12.0363760786       -1.4158363603      -12.0659635155
 C        -9.6220445158        2.2432877722      -18.0353915948
 C        -7.8069097715        0.5060156816      -17.8314645942
 C        -9.3693468798        7.0409851271      -13.9100601149
 C        -6.7956471069        7.0935961207      -13.5999734379
 C        -4.8430100941        6.9923375544       -8.2319449677
 C        -3.4018461622        5.8744467563       -9.8206715833
 C        -6.3098988742       -0.8615828136       -7.3634942019
 C        -4.6151534877       -0.0785144846       -5.4919443077
 C         1.4048517201       -2.8035189313      -10.6753470100
 C        -0.2576370972       -4.5201643422       -9.8421074503
 C         3.6494477494       -4.1887523868       -3.7979265309
 C         5.7867663237       -4.6042028139       -4.9599963992
 C         3.3416750763      -10.7517226877       -1.1180864258
 C         3.2977172498       -8.9500371594        0.8077072692
 C        10.7654853849       -9.3119844300        0.0406177899
 C        10.7962731183       -7.0992855075       -1.2781644920
 C         9.4813685153      -11.2174592148       -7.3190191563
 C         8.0796500446       -9.1454966960       -7.5838574794
 H         7.0798424236      -12.5194972289       -7.3008342728
 H         6.2425636155      -12.7981105104       -5.6942536094
 H         7.9700093881      -13.0815477829       -5.7096300089
 H        11.5724180184      -10.1522497747       -5.4225207039
 H        10.4201086508      -11.1411821242       -4.5377201117
 H        11.1690363028       -8.2744741644       -3.6789076450
 H        12.0323574997       -9.6191511778       -3.0974613266
 H         8.1591439833       -8.4160804327        1.1475853604
 H         7.9519324969       -9.8441838720        0.0841063602
 H         6.2372028351       -7.4526822590       -0.2033223653
 H         5.8173919582       -8.5159842244        1.1618443407
 H         2.4880408077       -9.2559563966       -3.2352016874
 H         4.2509220468       -9.2101896750       -3.5009359807
 H         2.3166270615       -6.7955782403       -3.9084736615
 H         3.0688033847       -7.8074143930       -5.0593674924
 H         4.0019828134       -3.2658435806       -6.8417624891
 H         2.4158737412       -3.4657195036       -5.9456888993
 H         2.2318758812       -5.0426895001       -8.2104446408
 H         3.0007160005       -3.6103376032       -8.8568816634
 H        -1.6741192392       -2.7612278932       -7.6990701432
 H        -2.4943168424       -3.2695455862       -9.2740442180
 H        -3.5053472789       -1.0450154212       -9.6476761855
 H        -2.3430134379       -0.2052230515       -8.5736639949
 H        -3.1079813316        1.8183884139       -6.9236214230
 H        -4.7496964851        2.4381512070       -6.6250231402
 H        -4.1479812431        2.7874238837       -9.5307874665
 H        -2.9067638044        3.6490957056       -8.6011249058
 H        -7.4348828226        6.6092944259       -8.8986003842
 H        -7.6694025696        5.0834125560       -9.3319363438
 H        -7.8327153541        7.4189953109      -11.2685052516
 H        -9.2674982314        6.7667664313      -10.4217024957
 H        -5.9360553297        4.3811308255      -14.9058890004
 H        -6.5394406458        5.5303603364      -16.0099108361
 H        -6.2392126486        3.1314253979      -16.8253815848
 H        -7.5759339869        4.0345285215      -17.3809121880
 H        -8.3356447696       -1.0125884918      -15.4016403291
 H        -9.5994818788       -1.5601083697      -16.5692875837
 H        -9.8615444434       -0.7574259561      -13.4682784617
 H        -9.9108193148       -2.5351210943      -14.1275069410
 H       -13.0166765908        2.7589953009      -12.6821327179
 H       -14.2369913314        1.5346429571      -12.9023873339
 H       -14.4712543934        2.5218844081      -15.1066753377
 H       -12.9611662518        1.7375012943      -15.4444887637
 H       -14.0040914379        5.8654364393      -18.5326597868
 H       -15.4174431645        4.9539862784      -18.2114215871
 H       -14.9646344938        3.2473820253      -19.8250113330
 H       -13.1555586753        3.5169170667      -19.7917728148
 H       -12.4470616731        1.5830631152      -23.9236224090
 H       -14.0214840767        1.3014059755      -23.0266119092
 H       -12.4713101301        0.7688985943      -22.3200876273
 H       -15.6233998426        4.4689292774      -22.8216055959
 H       -15.5992307805        2.9733835251      -22.0626358379
 H       -15.2331799904        3.2381820670      -23.7761991767
 H       -13.2588973131        4.3727421510      -24.2881455629
 H       -11.8960117559        4.7711346881      -23.2187812811
 H       -13.4666356091        5.7836470122      -23.2046216796
 H       -15.7504298445        4.2508537296      -15.3961131030
 H       -15.3500335510        5.9448204692      -15.8326539828
 H       -14.8649728659        5.2287441839      -14.2765276451
 H       -12.4104057779        6.2332884398      -17.1357130688
 H       -11.9292581191        6.0023088220      -15.4001301695
 H       -13.2967421158        6.9838568132      -15.8664472913
 H       -14.1216049507       -0.6286295634      -14.8124117161
 H       -14.6581306572       -0.2224387798      -13.2240352391
 H       -14.2480013309       -1.8469506043      -13.7058493637
 H       -12.7219308252       -1.1547072310      -11.3013555366
 H       -11.0241192196       -1.3109815567      -11.6489704572
 H       -12.2347139233       -2.5175875128      -12.2254525892
 H       -10.6638231315        1.8884364210      -18.1013849811
 H        -9.2162522109        2.2619553188      -18.9647237847
 H        -9.6812720330        3.2362072380      -17.6322561275
 H        -7.3249770717        0.9810007161      -18.6953391871
 H        -8.3210389906       -0.3216994883      -18.2936647611
 H        -6.9673008060        0.1232388172      -17.1770381002
 H       -10.1183359110        6.2349778910      -14.1922633626
 H        -9.1935876210        7.7191356198      -14.7213250383
 H        -9.6357817581        7.6593589210      -13.1175121309
 H        -6.6324696854        7.4001403189      -14.6038078120
 H        -5.9400684302        6.6946332543      -13.0936212282
 H        -7.0850532967        8.0199679836      -13.0408277124
 H        -5.5543513178        6.8722090230       -7.3635468318
 H        -5.0623722103        7.8435188364       -8.8091280074
 H        -3.8395442235        7.1763820509       -7.8278494909
 H        -3.1574151693        5.1289489077      -10.5191619619
 H        -2.6205749456        5.9352518178       -9.0369730041
 H        -3.4717848670        6.9307918540      -10.2058991782
 H        -6.6803499771       -1.5113331422       -6.6415659849
 H        -6.3756165766       -1.3677773950       -8.3712517459
 H        -6.9669547027        0.0325262649       -7.3680844211
 H        -5.4825561258        0.2335192497       -4.9827256027
 H        -3.8723333114        0.6377959655       -5.2746741602
 H        -4.1800057630       -0.9058525165       -5.0578539687
 H         0.9202202921       -2.4550526572      -11.5891233698
 H         2.0120216252       -3.6640196667      -10.9638269157
 H         2.0128957196       -2.0018527881      -10.3780871813
 H         0.5853797422       -5.1716829580      -10.1560409625
 H        -1.0078422865       -4.4773769698      -10.5416867203
 H        -0.7451055189       -4.7497615441       -8.8821536328
 H         3.9822518506       -4.5080500535       -2.8130195901
 H         2.5292173893       -4.3268910043       -3.7594957447
 H         3.9303997725       -3.1893957225       -3.9351203559
 H         5.8094904733       -3.9010108247       -5.7757804949
 H         6.4814711627       -5.3717724315       -5.2147076487
 H         6.1084183346       -4.1752012316       -4.0574442232
 H         3.6889188071      -11.0344971996       -2.0573036246
 H         2.2848818177      -10.6805351816       -1.0854365231
 H         3.5504519822      -11.5311217175       -0.2881379486
 H         3.4980413092       -7.9092310222        0.9647804947
 H         3.8042325093       -9.5808805483        1.5691728759
 H         2.2627133158       -9.1636395804        0.8724116719
 H        11.6795493927       -9.5678299203       -0.5092150031
 H        10.0816384461      -10.1847874955        0.2064372576
 H        11.0332723329       -8.9359491161        1.0040483801
 H        10.9228626798       -6.5234549674       -0.3565654840
 H        10.2121366727       -6.4111203668       -1.9755721187
 H        11.7738987418       -7.0962460734       -1.7694654410
 H         8.8639839505      -11.5016173293       -8.1578567078
 H         9.4940293774      -12.0978136743       -6.6720693740
 H        10.4819683584      -10.9400122332       -7.6324486240
 H         8.8316642790       -8.7920779813       -8.3062041810
 H         7.6920986902       -8.2364615934       -7.0320560013
 H         7.2027513053       -9.5433286655       -8.1005322614
 Na        7.1946365514       -8.6329327607       -3.2818344081
 Na      -10.0005560057        2.9795293790      -13.2120752676
