232

 C       -19.5852620956       -9.5192656778       -0.7287518925
 C       -18.5369071583      -10.5776628040       -0.8986692153
 O       -17.9405028668      -10.5450367197       -1.9782615395
 C       -18.2639022287      -11.7364088006        0.1001209643
 C       -16.7597652098      -12.0578823059        0.2356739343
 O       -16.2142117800      -12.7865110846       -0.5979503094
 C       -15.8804417445      -11.3967200790        1.2946063394
 C       -14.5096982103      -11.0616411732        0.6610853925
 C       -14.6906155433       -9.8695922050       -0.2693829814
 O       -15.7520745455       -9.2388997504       -0.3948299336
 C       -13.4516841718       -9.3104296805       -1.1075290513
 C       -13.4937579702      -10.2159983950       -2.4155037409
 O       -13.8939792050      -11.3343825497       -2.2482359417
 C       -12.9431726093       -9.6933200770       -3.7648460008
 C       -13.3363648187      -10.5517735307       -4.9565904673
 C       -14.7994731621      -10.5216197504       -5.3853265449
 O       -15.7215029116      -11.0304708462       -4.7425088698
 C       -15.0684952379       -9.7993512844       -6.7985452600
 C       -14.5762123564       -8.2823423177       -6.8274058774
 O       -14.3153786159       -7.6726865851       -5.7971406008
 C       -14.7556205041       -7.4868734706       -8.1047184132
 C       -13.6869578143       -6.3824122490       -8.3222695115
 C       -14.1986594941       -5.2714548221       -9.2500511157
 O       -15.0924467377       -4.5547809498       -8.8315671671
 C       -13.6924445095       -5.2188095524      -10.7086445329
 C       -12.1927688528       -4.3561167450      -10.3278148377
 O       -11.3121153217       -4.9802545486       -9.8199191545
 C       -12.0377327471       -2.9467637785      -10.7334100134
 C       -10.9067279644       -2.3985336868       -9.8734419880
 C       -10.3573141366       -1.1313870816      -10.4935775621
 O       -10.6507391919       -0.8327918504      -11.6548634252
 C        -9.2815577143       -0.1955694697       -9.7362269874
 C        -7.9297109849       -0.7121528995      -10.3146595169
 O        -7.4485408664       -1.7922986096       -9.9670796372
 C        -6.9935890968        0.3108824092      -11.1566669298
 C        -5.5019945428        0.2470527781      -10.6809760244
 C        -4.6230761176        1.3688636038      -11.1927653966
 O        -4.8568149389        2.5205155030      -11.0177947812
 C        -3.2550140432        0.9551390485      -11.9868816462
 C        -2.3237451832        0.3226033775      -10.8842752935
 O        -2.2158292593       -0.8696096335      -10.8367614228
 C        -1.3007616313        1.1976606161      -10.0927676044
 C        -0.0753663307        0.4072442267       -9.5526314293
 C         0.1558068719        0.7217754703       -8.0609610264
 O        -0.3511906609        1.7297581664       -7.5551325684
 C         1.3044384146       -0.0243605831       -7.3861883778
 C         2.7267489915        0.6178507094       -7.7203106210
 O         3.6633072388       -0.0505176622       -8.0394650373
 C         2.8415402420        2.1141049133       -7.5682823004
 C         4.1386873885        2.7392238478       -8.3425298058
 C         3.6928307513        3.3889809905       -9.7515808010
 O         2.6994047434        3.0604591866      -10.2687934721
 C         4.6339655361        4.5139124152      -10.4567839390
 C         4.4634938988        4.2959920045      -11.9761583208
 O         5.2892054269        3.6016497995      -12.5888166803
 C         3.1233190412        4.9644468548      -12.7032754493
 C         3.3042505255        6.4342864559      -13.1774377704
 C         4.4728860515        6.7073562779      -14.0490920408
 O         5.3914652644        5.8992719325      -13.9107058056
 C         4.4935414412        7.9621790884      -15.0737607193
 C         5.6594405470        7.6309242552      -16.0859005038
 O         5.4612269937        7.0703970331      -17.1627926288
 C         7.0566050868        8.2217391792      -15.6829499590
 C         8.2313323062        7.6040687121      -16.5572764612
 C         8.0495183004        5.9901293211      -16.5094965421
 O         7.9005118762        5.4221516245      -15.4189944347
 C         8.1782922771        5.0862858456      -17.8618923472
 C         9.2480455606        4.0053403005      -17.8472976552
 O        10.0683947340        4.0068739259      -16.9838497970
 C         9.3105058587        3.0545414537      -18.9982331367
 C        10.4090242961        1.9887872287      -18.6779830779
 C         9.6751980393        0.8275842112      -17.8809592248
 O         8.4623282050        0.6812498897      -17.8652334675
 C        10.4922021571       -0.2654762328      -17.1129139357
 C        10.2054663835       -0.0300169738      -15.5885493417
 O        10.6853022493        0.9603398569      -15.0687204952
 C         9.3020280139       -1.0636973542      -14.7828013917
 C         8.6648424866       -0.2496360121      -13.5593346426
 C         7.4921445831        0.6529114632      -13.9872721921
 O         7.7630323914        1.8083815708      -14.2626512345
 C         6.0769758067        0.0788528593      -14.3460513446
 C         5.7504804883        0.5982239572      -15.7829230448
 O         5.6246469567        1.8222264365      -15.8187491899
 C         5.6041647385       -0.4348351685      -16.8800098384
 C         5.8303504908       -1.4242046453      -14.1531331200
 C         4.9247285291        0.7337349664      -13.4563327289
 C        10.1270727342       -1.6437496533      -17.6645699551
 C        12.0564734665       -0.1814699041      -17.3023737129
 C         6.7627846644        4.3983600462      -17.9699152316
 C         8.2533212714        6.1190939149      -19.1570227217
 C         3.1972431482        7.7624087546      -15.9236676751
 C         4.6681604674        9.3513772691      -14.3190929754
 C         4.2120252642        5.9108880807       -9.9794925530
 C         6.1473158598        4.4381120759       -9.9940798382
 C         1.0809307953        0.0205361438       -5.8690315647
 C         1.4094858652       -1.5246990704       -7.8815403713
 C        -3.5708993334       -0.0537895081      -13.1091197436
 C        -2.6742215493        2.2693520093      -12.6806510051
 C        -9.5293952755        1.2277054031      -10.1197587187
 C        -9.4008953571       -0.4838469180       -8.1996047614
 C       -13.2187749224       -6.6439820095      -11.1739231721
 C       -14.5617499390       -4.4848710151      -11.6389879730
 C       -14.3775216665      -10.6082351632       -7.9238634096
 C       -16.5921674065       -9.7835070910       -6.9535131159
 C       -13.5079405165       -7.7972221896       -1.2574210889
 C       -12.1059887860       -9.8388630518       -0.4035328843
 C       -18.9093224220      -11.4261101866        1.4649979490
 C       -18.9809634038      -13.0181115924       -0.5034572128
 H       -18.9800023194       -8.7116863987       -0.3368171347
 H       -20.3706094317       -9.7640261751       -0.0000136448
 H       -19.9488987946       -9.2614358302       -1.7085396452
 H       -15.6815054817      -12.2419171067        1.9940920988
 H       -16.3373878816      -10.5737231027        1.8297612048
 H       -14.1628519010      -11.8287169537       -0.0311440653
 H       -13.7867120253      -10.8026211528        1.4257060581
 H       -11.8583652611       -9.6305288597       -3.6590097641
 H       -13.2307124731       -8.6693853173       -3.9339386723
 H       -12.8289745580      -11.5987704559       -4.9775080625
 H       -12.7978732995      -10.0990279103       -5.8295828839
 H       -15.6699101808       -6.9171062807       -7.9492248319
 H       -14.8580720052       -8.0440545022       -9.0671716636
 H       -12.6769422876       -6.7599449401       -8.6827463242
 H       -13.5318043075       -5.9690798635       -7.3607992601
 H       -12.9172258553       -2.3281366061      -10.4298316332
 H       -11.6520848584       -2.8316939798      -11.7629255454
 H       -10.2552722288       -3.2099359092       -9.6732345644
 H       -11.3395849170       -2.0979085591       -8.8972363166
 H        -7.2003945822        1.3520885734      -10.9209856315
 H        -7.1616728405        0.1951699918      -12.2557992756
 H        -5.0536916077       -0.7971342986      -10.9717571486
 H        -5.5540128791        0.1238739412       -9.5675673594
 H        -1.9198679424        1.6540733471       -9.3238066326
 H        -1.0531318584        2.0340649555      -10.8447763946
 H         0.7850733530        0.6743919549      -10.2067478563
 H        -0.3727488571       -0.5497933801       -9.8244609200
 H         3.0657130777        2.2401010620       -6.5387816293
 H         1.9766509991        2.6051393211       -7.9661306751
 H         4.7518702709        1.8677565341       -8.6874459067
 H         4.6017433794        3.3765340368       -7.6056269218
 H         2.3178565624        4.8902404735      -11.8938728609
 H         2.7007644578        4.3303608990      -13.5052678581
 H         3.5318916476        7.1104164580      -12.3394191399
 H         2.4010996086        6.8211818343      -13.6354290957
 H         7.2795469832        8.0040704591      -14.6017492988
 H         7.1470210855        9.2773655285      -15.8193627226
 H         9.3500823692        7.9013566922      -16.1545315340
 H         8.2438982319        7.9687745135      -17.5325354546
 H         9.5989654427        3.6784105929      -19.7981640968
 H         8.3360457502        2.5589044151      -19.2324402435
 H        11.1379315694        2.3348649033      -17.9575890287
 H        10.9916910287        1.6222061898      -19.4974265980
 H        10.0979944196       -1.7634832226      -14.4808211460
 H         8.4815711343       -1.4084199018      -15.3659534767
 H         9.4971349217        0.3909021123      -13.0871801030
 H         8.3552873212       -0.9736495240      -12.8470032780
 H         6.1818117095       -1.3463904231      -16.8387203275
 H         5.5957497532        0.1290823866      -17.9191475056
 H         4.5764705531       -0.7926002184      -16.7947530802
 H         4.7726474526       -1.6894753113      -14.1547658631
 H         6.2424590054       -1.7196897531      -13.1592556900
 H         6.2200533248       -1.9398650702      -15.0247291183
 H         4.1039986781       -0.0609476003      -13.4474044080
 H         4.4905306701        1.6692859145      -13.8754765980
 H         5.3304124171        0.6486236771      -12.4298791473
 H        10.5282190902       -1.8992865858      -18.6254799972
 H         9.0657644271       -1.8114688374      -17.6947701266
 H        10.5136725499       -2.4583278111      -17.1678851835
 H        12.3980192489        0.0039028951      -18.3400136702
 H        12.5965390272       -0.9911798292      -16.8140175799
 H        12.2701302765        0.7010433638      -16.7017924000
 H         6.6260919923        3.8759525025      -17.1007965951
 H         6.8593532883        3.6935766224      -18.7956391059
 H         6.0322117697        5.1351451027      -18.1265390046
 H         9.0063358902        6.9270236476      -19.0732872314
 H         7.4020593898        6.6286958473      -19.1935855483
 H         8.2904401774        5.5468964894      -20.0853450224
 H         2.2404797065        7.9075968301      -15.3121433138
 H         3.3211037036        6.7631140028      -16.3251422135
 H         3.1651801259        8.4957700170      -16.7649065201
 H         4.4865208663       10.2150016874      -15.0135670326
 H         5.6928537019        9.3305719002      -13.8478151006
 H         3.8400506501        9.5335250587      -13.6015055797
 H         4.4025772828        6.2612086902       -9.0037171297
 H         3.0712150411        6.0393293685       -9.9825276647
 H         4.5335537974        6.6391127485      -10.6957950605
 H         6.7663603385        5.1236927887      -10.5039738783
 H         6.5157275794        3.5635553887      -10.3510358052
 H         6.2131444535        4.4796874044       -8.9503909282
 H         0.9760224616        0.9946327134       -5.3971943482
 H         1.9243784750       -0.4965181539       -5.4762507013
 H         0.2465245723       -0.4722734927       -5.4807281141
 H         0.4524335638       -2.0083150949       -7.9096129919
 H         2.0501481602       -2.1129356918       -7.1722410213
 H         1.8198899990       -1.4479081605       -8.8951746323
 H        -2.9340603060       -0.8922467948      -12.9189606827
 H        -3.3770090338        0.4540559509      -14.0410597632
 H        -4.5355425749       -0.5156896512      -13.1277671078
 H        -1.6350834917        2.4496446309      -12.5784424947
 H        -3.1057470298        3.1281747979      -12.1779826396
 H        -2.9991168140        2.2479205141      -13.6969796365
 H       -10.5779996085        1.5866190385      -10.1351683355
 H        -9.1830147457        1.4098774338      -11.0717812371
 H        -9.0423081230        1.9372074794       -9.4710280074
 H       -10.3909073209       -0.2522363071       -7.8532804254
 H        -8.6444090927        0.2037526850       -7.7265510414
 H        -9.0598858874       -1.5506195552       -8.0139375882
 H       -13.0221180614       -6.6559888281      -12.2523825833
 H       -13.9229941128       -7.3951026399      -10.9789272175
 H       -12.2482338624       -6.8816183472      -10.7366007909
 H       -15.6280552850       -4.7360029316      -11.6271125802
 H       -14.1618368533       -4.5562844220      -12.6505310773
 H       -14.5848192907       -3.4175795972      -11.4669054757
 H       -13.2787312923      -10.8163131596       -7.8517536085
 H       -14.5879863825      -10.1722471715       -8.8953487815
 H       -14.8954779958      -11.5045798406       -8.0199919824
 H       -17.2704646883       -9.1531053780       -6.3933317986
 H       -17.1021296261      -10.7131630339       -6.7066596332
 H       -16.8126332214       -9.4752480977       -7.9995310322
 H       -14.3939016557       -7.3942656521       -1.6823957915
 H       -12.6880468596       -7.5597342403       -1.9702744630
 H       -13.3805570623       -7.1999156872       -0.3233955146
 H       -12.0453476820      -10.8841202786       -0.4596924344
 H       -12.0675160772       -9.6208469069        0.6233316972
 H       -11.2484494123       -9.4292630253       -1.0349398328
 H       -18.5052061338      -10.6072616744        2.0183806227
 H       -18.8490258131      -12.3315339020        1.9912480996
 H       -19.8786033544      -11.0276318898        1.3995962785
 H       -19.4238791353      -13.6494738246        0.3019551412
 H       -18.2509380322      -13.6767167235       -1.0146965534
 H       -19.7646566157      -12.6963817975       -1.1903043238
 Na      -16.2110625520      -12.0509112256       -2.7732722209
 Na        6.4590070831        3.5707483730      -14.3825230413
