232

 C         7.0944758222      -12.4088344021       -6.3415239813
 C         7.4159161830      -10.9801533908       -5.9656514514
 O         6.8247416266      -10.4934709199       -5.0313560190
 C         8.5965897187      -10.2833484484       -6.5510446921
 C         9.4393068120       -9.5229843161       -5.3103921456
 O         9.0619983947       -8.3729051998       -5.0207277431
 C        10.7171651730      -10.0373072614       -4.8176523858
 C        11.1379170754       -9.3248012767       -3.4324255893
 C         9.9753680892       -9.3055603752       -2.4887521494
 O         9.0427789979      -10.0909091889       -2.5072977948
 C        10.1518443808       -8.3955967960       -1.1781672604
 C         8.6373031225       -8.0330638941       -0.8643437034
 O         8.0607722726       -7.3082840236       -1.6486114864
 C         7.8231350250       -8.8989709476        0.1565386404
 C         6.2573565191       -8.6271766726        0.2471342344
 C         5.4101864288       -9.4259262385       -0.7938014309
 O         5.8871465881       -9.9942149539       -1.7784242419
 C         3.8329654550       -9.4374176771       -0.5843548097
 C         3.2347294427       -8.2833190956       -1.5551611018
 O         2.8422515342       -7.1976533307       -1.2360476959
 C         3.3579351047       -8.6961740910       -3.0160148843
 C         3.1762648637       -7.3676032088       -3.8917870255
 C         4.4431395653       -6.5418893298       -3.9844989711
 O         5.5460807676       -6.9421773956       -3.5221557401
 C         4.5101201336       -5.1444251713       -4.6643605551
 C         3.7820639386       -5.1467451324       -6.2609547574
 O         3.9876737263       -6.1009383619       -6.9300168966
 C         3.1245434992       -3.8161701850       -6.7473189165
 C         2.2412103936       -4.0932360462       -7.9683821510
 C         1.0627483698       -3.0852305882       -8.0414328657
 O         0.6518469869       -2.5643371425       -7.0266322092
 C         0.3848091963       -3.0695922922       -9.4333121045
 C        -0.6341622733       -1.9321379860       -9.5128374599
 O        -0.3831135455       -0.8468240447      -10.0163184221
 C        -1.9743227353       -2.2890499798       -8.8005790847
 C        -3.0363134334       -1.2130914351       -8.6068224340
 C        -4.1119747223       -1.5829908308       -7.6323310762
 O        -4.2903192918       -2.7295539942       -7.1786650078
 C        -4.9322838285       -0.3111631825       -7.1132187401
 C        -4.7925252625        0.9230892152       -8.0239438640
 O        -5.0296804989        0.7760464416       -9.2061850577
 C        -4.0280287693        2.1200029652       -7.5267139770
 C        -3.9073967676        3.2052943666       -8.5740565617
 C        -4.9113243440        4.3710845631       -8.2969701357
 O        -5.7806723624        4.1853825247       -7.4632162460
 C        -4.7528003794        5.7896916607       -9.0823113063
 C        -5.9130742496        5.7587957725      -10.1599091346
 O        -5.6042025080        5.6978499899      -11.3442673321
 C        -7.3983627132        5.9176624177       -9.6967718854
 C        -8.2104976380        6.6116365304      -10.8277558916
 C        -8.3405793962        5.6103120112      -12.1362538848
 O        -8.8835891087        4.5499740646      -11.9149644712
 C        -8.1213918813        6.2407163397      -13.5001239038
 C        -7.9790623307        5.0791265720      -14.6761316276
 O        -9.0288392897        4.5161695739      -14.9540313579
 C        -6.7623365746        4.5557704862      -15.2940702904
 C        -7.1197770715        3.6045296037      -16.4799419971
 C        -7.9617503426        2.3877602715      -15.9817869065
 O        -8.0555087997        2.0338388671      -14.8470781397
 C        -8.8465899339        1.4105242593      -16.9895138795
 C        -9.7565350296        0.5085050203      -16.0032955065
 O       -10.6455869111        0.9972818488      -15.4132944948
 C        -9.2956592585       -0.8890782607      -15.6894992094
 C       -10.0389723395       -1.2435737401      -14.4076366511
 C       -11.6897610253       -1.1753191908      -14.5126749494
 O       -12.2079981381       -1.6108915542      -15.5337535279
 C       -12.5653384818       -0.6216272168      -13.3019232942
 C       -12.2237266989        0.8637467175      -13.1301333474
 O       -11.1632213650        1.1827649165      -12.5434194507
 C       -13.2936553949        2.0076822350      -13.3977284440
 C       -13.4857993432        2.4485044011      -14.8426145342
 C       -12.8063309337        3.7806852188      -15.0295841134
 O       -11.8905506896        4.1375726328      -14.3003702941
 C       -13.4999520922        4.8240090963      -16.0074330576
 C       -13.7037580432        4.0804841702      -17.3525380611
 O       -13.4425849184        2.8957137841      -17.4684856695
 C       -14.3241525417        4.9009646078      -18.4366696226
 C       -14.1897329364        4.1658888973      -19.7752200253
 C       -13.8311085322        4.9698325457      -20.9863813617
 O       -13.8923954774        6.1925377410      -21.0507256229
 C       -13.7370760206        4.0784577745      -22.3258659755
 C       -12.7699580714        2.7795074937      -22.0440008253
 O       -11.8103864089        2.8464072057      -21.2681458202
 C       -12.9739066804        1.4077598068      -22.7723170424
 C       -15.1324990296        3.4636917242      -22.7508452847
 C       -12.9652899139        4.8807320911      -23.4165871218
 C       -14.9679908488        5.1228036847      -15.5932687487
 C       -12.6212087461        6.1139236890      -16.1157035102
 C       -14.0677037072       -0.9304224828      -13.5984606417
 C       -12.1682357191       -1.5040755258      -12.1069835162
 C        -9.7146483333        2.2245203350      -18.0367599740
 C        -7.8471121290        0.5116056355      -17.7641525129
 C        -9.3576393188        7.0635182723      -13.9159717940
 C        -6.8690122643        7.0474499474      -13.5736122831
 C        -5.0631057910        6.8824629873       -8.0537022185
 C        -3.4185956910        5.8872417308       -9.8578665702
 C        -6.3878492241       -0.8334319198       -7.3033443397
 C        -4.5853490681       -0.1164897460       -5.5862732955
 C         1.4949253146       -2.8211716615      -10.5328950417
 C        -0.2072713591       -4.5145787419       -9.8207033628
 C         3.7193102438       -4.1057952165       -3.8338201209
 C         5.9806418963       -4.7391385019       -4.9137415417
 C         3.3613263284      -10.7794856624       -0.9770453380
 C         3.3712989565       -9.0355978012        0.8943226672
 C        10.8619223858       -9.0832940635        0.0183094375
 C        10.8877571169       -7.0426061225       -1.3991515214
 C         9.6330329674      -11.2536118665       -7.3347733400
 C         8.0735631794       -9.1022872078       -7.4857442008
 H         6.7560393737      -12.6133941211       -7.3490371084
 H         6.2494985756      -12.6029050768       -5.6269930641
 H         7.9091529192      -13.1147766023       -5.9581176980
 H        11.5280553208       -9.8603738867       -5.4855103032
 H        10.8059223612      -11.0576644203       -4.5956088768
 H        11.4123284993       -8.2575288512       -3.6247741613
 H        12.0095098491       -9.6364241466       -2.9475283382
 H         8.3404255995       -8.6692548143        1.0810587382
 H         8.0960814431       -9.8728573319       -0.2662966746
 H         6.0568592355       -7.5618134521        0.1582135158
 H         5.9721371261       -8.9875775823        1.2303482735
 H         2.6657571338       -9.5035770564       -3.1713395718
 H         4.3849579002       -9.1272579107       -3.1552760767
 H         2.3731588054       -6.7790561497       -3.4943873622
 H         2.7989673597       -7.6198891573       -4.9347070617
 H         3.8532986717       -3.0312436453       -6.9390847851
 H         2.4013587054       -3.4863313775       -5.9458325896
 H         1.9344020164       -5.1538146781       -7.9921560856
 H         2.8767598797       -3.8990653265       -8.8778350319
 H        -1.6720908062       -2.7310382696       -7.8578494719
 H        -2.4633244938       -3.1520380295       -9.2939839688
 H        -3.5484725466       -1.0876000942       -9.5666541146
 H        -2.5221138051       -0.2222179468       -8.3525332186
 H        -3.0045072781        1.5714397674       -7.2302980125
 H        -4.3744543801        2.5066954223       -6.5756166000
 H        -4.0509396325        2.9012679340       -9.6290514567
 H        -2.9317105600        3.6803956066       -8.5131799873
 H        -7.5498301148        6.5137648522       -8.7629476888
 H        -7.8986959191        5.0090376715       -9.4262345673
 H        -7.7247920991        7.4785512330      -11.2048525582
 H        -9.2223918375        6.8780351987      -10.6893300347
 H        -6.2161363850        3.8794483272      -14.5354024935
 H        -6.0146295292        5.2737002395      -15.5536234373
 H        -6.2799399185        3.3326597619      -17.0736322980
 H        -7.8308452871        4.0648194330      -17.2219802137
 H        -8.2578146564       -1.0451155904      -15.4955766532
 H        -9.5641264454       -1.5850862472      -16.5590475081
 H        -9.7683108093       -0.5896914683      -13.5203569072
 H        -9.8663919077       -2.2749546622      -14.2151332929
 H       -13.1219369067        2.9001714460      -12.7398176310
 H       -14.3333544224        1.6375505000      -13.1131793984
 H       -14.4972727654        2.5339376289      -15.1283689502
 H       -13.0626098001        1.7429378229      -15.6025205938
 H       -13.7985781526        5.8637584227      -18.4872864729
 H       -15.3839764345        5.1859693255      -18.1646024818
 H       -15.1637109315        3.7129200212      -20.0113191084
 H       -13.4330529659        3.3592265815      -19.7540638335
 H       -12.7933067059        1.5533166502      -23.8138585515
 H       -14.0490523002        1.0605438611      -22.6340472346
 H       -12.2046719265        0.7025124047      -22.3147955007
 H       -15.8912057107        4.1596602888      -23.1125102419
 H       -15.6480157036        2.9168354692      -22.0252427761
 H       -15.0916812694        2.7542700707      -23.5965528149
 H       -13.5079150792        4.8542966183      -24.3374942712
 H       -12.0376491736        4.4725178868      -23.5271592314
 H       -12.9671136861        5.8113094890      -22.9638688975
 H       -15.6821326063        4.4247109973      -16.0282688368
 H       -15.2070571678        6.1648836268      -15.9191562173
 H       -15.1824203307        5.0435540806      -14.5376901252
 H       -12.4716740539        6.3281480815      -17.1883975052
 H       -11.6877780440        5.9753028405      -15.5754595519
 H       -13.0833041060        6.9871321855      -15.7280315118
 H       -14.4879774340       -0.5407842660      -14.5353068030
 H       -14.6218306492       -0.4302890990      -12.7803535664
 H       -14.2266274625       -1.9916381348      -13.6367978624
 H       -12.4848903556       -1.2041654398      -11.0893957110
 H       -11.0484092154       -1.6527155341      -12.0892681657
 H       -12.5363832102       -2.4568565858      -12.2066739369
 H       -10.6233434228        1.6945421264      -18.4218776667
 H        -9.0361745818        2.4328812575      -18.8934809338
 H       -10.0308992371        3.1138496391      -17.6159003687
 H        -7.2396101665        0.9605656401      -18.5488168320
 H        -8.4369392464       -0.2132876747      -18.3482536693
 H        -7.2144601355       -0.0151735123      -17.1067837854
 H       -10.0586448019        6.2114143311      -14.1395897263
 H        -9.1645341291        7.6371153834      -14.8150046617
 H        -9.6659941684        7.8017483853      -13.1524577736
 H        -7.1172879764        7.8583585488      -14.2974314477
 H        -6.0185278808        6.4101215689      -13.8923580458
 H        -6.5300986411        7.5038620563      -12.6429293955
 H        -5.9814161053        6.5807317706       -7.5674325423
 H        -5.1361440850        7.8929848628       -8.4910443507
 H        -4.2841505743        6.9416702986       -7.3389232454
 H        -3.3023253630        5.1687072539      -10.6419604997
 H        -2.5597277724        5.9071664828       -9.1488318556
 H        -3.5124887635        6.9020686020      -10.2503147171
 H        -6.5741128174       -1.7299938793       -6.6920121086
 H        -6.6061181847       -0.9889409788       -8.3088669971
 H        -7.0833316268       -0.0691038929       -6.9137158406
 H        -5.1932226710        0.6328797816       -5.1668572038
 H        -3.5307134995        0.2961461912       -5.4022652185
 H        -4.5203906386       -1.0743138624       -5.0030104607
 H         1.1140590359       -2.7038005942      -11.5953205373
 H         2.1240048199       -3.6599554030      -10.5452668318
 H         2.1288749499       -1.9298846099      -10.2976570748
 H         0.5695460334       -4.9562608505      -10.4402290639
 H        -1.2024303736       -4.5021720113      -10.2526985094
 H        -0.3736062788       -4.9394165198       -8.8556762535
 H         3.9810745024       -4.1691168557       -2.7714755032
 H         2.6984776410       -4.4063143183       -3.8742564358
 H         3.8046163882       -3.0875551166       -4.2419890115
 H         6.1003269472       -3.9735268655       -5.7261840315
 H         6.5395901829       -5.6348659436       -5.1638181683
 H         6.4307681457       -4.4004201123       -3.9998050766
 H         4.0507352368      -11.1258044894       -1.7768892203
 H         2.2846318510      -10.8976487674       -1.2377554468
 H         3.5286336203      -11.4302952620       -0.0788220721
 H         3.4389929082       -7.9528398159        0.9494122337
 H         4.0734346567       -9.5397143449        1.5870925537
 H         2.3868279815       -9.3628449532        1.1303773309
 H        11.9467206924       -9.0183979807       -0.1791688415
 H        10.4266657757      -10.0784407256        0.0446050775
 H        10.6541767016       -8.7139441052        0.9789829656
 H        11.2628535905       -6.4973198632       -0.5164364403
 H        10.2206471168       -6.3226762147       -1.8782294397
 H        11.7767125883       -7.0303518896       -2.1133944349
 H         9.1687356542      -11.5846943322       -8.2702271648
 H         9.8977826940      -12.1291176708       -6.7530550092
 H        10.5075554537      -10.6133913008       -7.6034808125
 H         8.9193139018       -8.5257344582       -7.7832666244
 H         7.3618803054       -8.4506444245       -7.0337116813
 H         7.5538966719       -9.5327432133       -8.3776390696
 Na        7.1430613340       -8.6143695790       -3.3028488840
 Na       -9.9872956956        2.9831131625      -13.3029069878
