232

 C         7.0204089879      -12.4280428377       -6.5390886330
 C         7.4143615733      -11.1245859048       -5.7962082036
 O         6.7417768019      -10.5117243775       -5.0103149777
 C         8.7557954349      -10.2432240560       -6.5080963512
 C         9.5567970042       -9.5322077287       -5.3760751267
 O         8.9539136713       -8.5107332804       -4.9660814836
 C        10.8335030266      -10.0971223015       -4.7873179026
 C        11.2709311549       -9.2863109414       -3.5199785052
 C        10.1626580914       -9.2575573441       -2.4976081527
 O         9.1564689835       -9.9325182854       -2.7675890435
 C        10.0915146469       -8.3162584815       -1.2755576099
 C         8.5656603269       -8.0750224185       -0.9872585257
 O         8.0372443936       -7.1331324156       -1.5184173668
 C         7.8640507810       -9.0380293251        0.0339020542
 C         6.3892946311       -8.8173199137        0.2801408516
 C         5.4297455951       -9.3818017700       -0.7445706767
 O         5.7275675268       -9.9351537480       -1.7400555126
 C         3.8940650881       -9.4208098860       -0.4861311572
 C         3.3803989940       -8.4001375948       -1.5526065385
 O         2.9428314195       -7.3213527892       -1.1107531908
 C         3.3330277717       -8.6306768559       -3.1011100928
 C         3.1822940474       -7.2490559514       -3.8588855479
 C         4.4989912362       -6.4916738563       -4.0054808550
 O         5.5210334389       -6.9628385530       -3.5826817979
 C         4.5728295258       -5.1198865660       -4.7534038363
 C         3.9166006414       -5.0968661612       -6.1327019351
 O         3.9226257630       -6.0642060029       -6.9023036476
 C         3.1514403272       -3.8877591377       -6.5508022148
 C         2.2486466777       -4.2391702047       -7.8036323332
 C         1.1202064033       -3.2110965269       -8.0168376442
 O         0.6299426892       -2.5874131475       -7.0699780603
 C         0.4867205876       -3.1227430449       -9.3889302380
 C        -0.6173862139       -2.0090520678       -9.5141612634
 O        -0.3484274944       -0.9402328091      -10.0705482460
 C        -1.9390402015       -2.3104774821       -8.7771815362
 C        -2.9806653407       -1.2679895622       -8.6257172683
 C        -4.1040983945       -1.5550232781       -7.6080641315
 O        -4.2143511277       -2.6491771510       -7.0890136892
 C        -5.1582832959       -0.3239602512       -7.1288525989
 C        -4.7545336261        0.7982180961       -8.1600512680
 O        -5.0934668972        0.9297359564       -9.2992987693
 C        -3.9132133394        2.1597380578       -7.5567241560
 C        -3.8609380767        3.2734455901       -8.5886698951
 C        -4.9023623431        4.3138530691       -8.3034976371
 O        -5.8241114487        4.1795517701       -7.5471639315
 C        -4.9129769289        5.7059793312       -9.0182051237
 C        -5.9191190266        5.7447890415      -10.1226945679
 O        -5.6025247240        5.5278060549      -11.2724037440
 C        -7.3747676726        5.8579685440       -9.8402027631
 C        -8.2367331926        6.5831857163      -10.9017606110
 C        -8.4490123094        5.6729465142      -12.1994377611
 O        -9.0017088551        4.6388142074      -11.9592279579
 C        -8.0682112020        6.2687372396      -13.6821084553
 C        -8.0274758737        5.0069283506      -14.6402594314
 O        -9.0762423468        4.5388075226      -15.0042306410
 C        -6.7025210149        4.3508358682      -15.1910532440
 C        -7.1469075921        3.5169361221      -16.4764338665
 C        -8.0250563837        2.4220014274      -15.9654862457
 O        -7.8867402456        2.0797159221      -14.7960464863
 C        -8.8267282582        1.4831767197      -16.9414611347
 C        -9.7006238613        0.6496279877      -15.9793438026
 O       -10.6482117628        1.1675825180      -15.4390759055
 C        -9.3972504487       -0.8937347757      -15.6331640213
 C       -10.1405107823       -1.2081907450      -14.3456225738
 C       -11.6918286716       -1.1183012569      -14.5737752216
 O       -12.2168505916       -1.5762175781      -15.4873140691
 C       -12.6730544391       -0.6490445832      -13.2528969358
 C       -12.2626332868        0.8412236123      -12.9795975889
 O       -11.1902360535        1.2304925209      -12.5541662217
 C       -13.3267288635        1.9339080526      -13.3449865732
 C       -13.4693432838        2.3218967299      -14.8472790279
 C       -12.8364289757        3.7478510101      -14.9914972630
 O       -11.8430257942        4.0938045547      -14.3746357503
 C       -13.4455603342        4.8536412164      -16.0201181524
 C       -13.6177540643        4.1635700495      -17.4103133127
 O       -13.5530854091        2.9308350852      -17.4584479360
 C       -14.2319367812        4.9885985519      -18.5558125011
 C       -14.3410714593        4.1847633746      -19.8128290610
 C       -14.0158261252        4.9590568919      -21.1183465083
 O       -14.0296805552        6.1666030997      -21.0802115792
 C       -13.6812048056        4.0717920706      -22.3903275864
 C       -12.7584768747        2.7534281713      -22.0674072380
 O       -11.9205286407        2.8646963000      -21.2325768558
 C       -13.0199396750        1.3976803838      -22.6496371114
 C       -15.0477841828        3.5251485997      -22.7422115372
 C       -13.0157615476        4.9216347754      -23.5258780621
 C       -14.9324900404        5.2278206117      -15.6295462522
 C       -12.5021672602        6.0623273708      -16.1050409388
 C       -14.1175872866       -0.9546359053      -13.5029230004
 C       -12.2287497034       -1.5237637474      -12.0533893720
 C        -9.7558731589        2.2103613281      -17.9127119121
 C        -7.8303621648        0.5510567736      -17.7521988347
 C        -9.3747426497        7.0989679076      -13.8733574717
 C        -6.7089235520        7.1797752614      -13.6578496776
 C        -5.1879047508        6.7332603340       -7.8438656858
 C        -3.4878282427        5.9314761625       -9.7397362357
 C        -6.6788624598       -0.8118191993       -7.1025870444
 C        -4.6695719542       -0.1458968313       -5.7616301634
 C         1.5928363402       -2.6866196455      -10.4912065301
 C        -0.1775497826       -4.4818842761       -9.7123348855
 C         3.8082759726       -4.0460098099       -3.8302510176
 C         6.0813862823       -4.7718782221       -4.8858063589
 C         3.2737698133      -10.9096062549       -0.7935701841
 C         3.4901804613       -9.1083079042        0.9759834508
 C        10.9061240600       -8.9342655426       -0.0513678060
 C        10.9158354991       -6.9750123209       -1.5696311808
 C         9.7225658501      -11.1244252596       -7.3140911876
 C         8.1503574819       -9.1896032075       -7.3942528346
 H         6.6925020008      -12.1110595042       -7.5243888678
 H         6.0892534001      -12.8705015175       -6.0614562434
 H         7.7878766028      -13.1644309238       -6.5340738838
 H        11.6627176393       -9.9938429966       -5.3581752850
 H        10.9124820040      -11.0754689248       -4.4785522478
 H        11.6482594929       -8.3573404901       -3.7715345497
 H        12.1664659676       -9.7351931959       -3.0927210472
 H         8.4735046723       -8.7564197586        0.9487303792
 H         8.1939346757      -10.0474838715       -0.3857018128
 H         6.2178303138       -7.6707198412        0.3616807869
 H         6.1879051972       -9.2808188483        1.2166697801
 H         2.5049652615       -9.3218181619       -3.3841622391
 H         4.2562468420       -9.1273518555       -3.3073326943
 H         2.4293067483       -6.7278157910       -3.2983325079
 H         2.6548504881       -7.4144534151       -4.8380227509
 H         3.8541598675       -3.0707538486       -6.8666649367
 H         2.5394681254       -3.5175986279       -5.8092597056
 H         1.6661578264       -5.2086606462       -7.6455541198
 H         2.8359296043       -4.3835664050       -8.7038741780
 H        -1.6614987070       -2.6892451413       -7.9000467085
 H        -2.3491250748       -3.1537040012       -9.2464444412
 H        -3.3853039715       -0.9540146806       -9.6147605097
 H        -2.4153164731       -0.4264583007       -8.2137106477
 H        -2.8933027703        1.9051758160       -7.1705098446
 H        -4.4128061524        2.5267531664       -6.6855676018
 H        -4.1629458592        2.9907135244       -9.5938926514
 H        -2.8575448345        3.7089305102       -8.6924842804
 H        -7.6866689416        6.3375063694       -8.8755484915
 H        -7.9191979206        4.8272439277       -9.7074979085
 H        -7.8687241697        7.5472470161      -11.2502766901
 H        -9.2172002638        6.7158629096      -10.6238661486
 H        -6.1834963023        3.6125993021      -14.4670141349
 H        -5.9126863355        5.0475842201      -15.4043187300
 H        -6.3473306564        3.0644149565      -17.0715499547
 H        -7.7501500981        4.1312152568      -17.1695767702
 H        -8.2976489366       -1.1894855895      -15.4661075145
 H        -9.7279533806       -1.5195885388      -16.4600507736
 H        -9.9950398937       -0.5061938958      -13.5568674423
 H        -9.9851458615       -2.1949458620      -14.0366345189
 H       -13.0665451848        2.8782513126      -12.7827578037
 H       -14.4106682549        1.7762050062      -13.0559539648
 H       -14.5013527405        2.2045589447      -15.1973267821
 H       -12.8762137605        1.8861712354      -15.6155972704
 H       -13.6569311578        5.9432106546      -18.8404963991
 H       -15.2082659902        5.3342607439      -18.1923918711
 H       -15.3583225223        3.7883307689      -19.8663329282
 H       -13.6718344037        3.3387810219      -19.7984740444
 H       -13.3973143954        1.6954676651      -23.6269342480
 H       -13.9197814362        1.0064484294      -22.1479855274
 H       -12.1172398238        0.7752520408      -22.6343728870
 H       -15.7324458922        4.3337947900      -23.1172589630
 H       -15.6589366787        2.9766483515      -22.0504634595
 H       -15.0708575385        2.7826698038      -23.5541342054
 H       -13.8450679607        5.1277244624      -24.2130236531
 H       -12.2510176849        4.4061658269      -24.0323531749
 H       -12.7509795631        5.7510009732      -22.9722715060
 H       -15.5432422597        4.4740167144      -16.0788430714
 H       -15.2069955355        6.2579851374      -15.9867531759
 H       -15.1662333880        5.2273931298      -14.5540319409
 H       -12.5766671240        6.4279178128      -17.1141021797
 H       -11.5042128906        5.9086166574      -15.7544497734
 H       -12.9615610782        6.9019725702      -15.5118041160
 H       -14.6616873153       -0.1950700495      -14.0991595253
 H       -14.5625585225       -0.8375426308      -12.5121416767
 H       -14.3222653947       -1.9480213202      -14.0521452561
 H       -12.5104781736       -1.0662644157      -11.0799869793
 H       -11.1628215684       -1.5750919314      -12.0463592896
 H       -12.5334010015       -2.5620068316      -11.9363221856
 H       -10.2044441416        1.4543372812      -18.5136476414
 H        -9.1718975398        2.8869770990      -18.6419308938
 H       -10.5928036506        2.7424146928      -17.3728511500
 H        -7.1677211387        1.0924441361      -18.3955593702
 H        -8.3765860677       -0.0501895309      -18.4754889781
 H        -7.3019855549       -0.0938356265      -17.1005145511
 H       -10.2193911349        6.4926903068      -13.7719830488
 H        -9.3743478582        7.6941053071      -14.8339559753
 H        -9.2153367461        7.8983692881      -13.0629332616
 H        -7.0510580296        8.2293059863      -13.8685115083
 H        -5.9265474901        6.8148381179      -14.3690310842
 H        -6.2281434823        7.1314841570      -12.6914175963
 H        -6.1443316855        6.6188874413       -7.4618906572
 H        -5.0894770624        7.7340130174       -8.3318471556
 H        -4.3992559024        6.7037752704       -7.0920552219
 H        -3.4293656072        5.1392840891      -10.5654443527
 H        -2.6519797225        5.8782927520       -9.0530951275
 H        -3.5229037409        6.8584143217      -10.2260220791
 H        -6.8115098308       -1.9015596030       -6.8665808779
 H        -7.1731037864       -0.5121126474       -7.9979738602
 H        -7.1844339155       -0.2956040173       -6.3282363604
 H        -4.7561713980        0.9859682694       -5.4983595554
 H        -3.5441242902       -0.2288562629       -5.7233700784
 H        -4.9547202861       -0.8761566974       -4.9338208199
 H         1.2015437129       -2.6043514283      -11.5114969764
 H         2.4494537593       -3.4132918024      -10.4868694601
 H         2.0556365063       -1.6921376102      -10.1768524044
 H         0.4798115561       -4.9721849514      -10.3768631441
 H        -1.2167729618       -4.3036437389      -10.1533386232
 H        -0.4321535666       -4.8965724524       -8.7702810702
 H         4.3419645076       -4.0760442093       -2.8778569477
 H         2.8021656981       -4.2957589479       -3.6326600283
 H         3.8250929734       -3.0230052657       -4.3407683881
 H         6.3962208719       -3.8140238438       -5.3658053718
 H         6.5598455604       -5.6834318373       -5.3340232977
 H         6.4832511999       -4.8470205126       -3.8223262275
 H         3.9912569422      -11.2638039742       -1.6537010462
 H         2.1810823051      -10.9404733307       -1.1104825644
 H         3.4153877677      -11.5593187201        0.0100533739
 H         3.4788223550       -8.0199411303        1.2183519973
 H         4.1204019594       -9.7440954792        1.5805971351
 H         2.4360889023       -9.4839917656        1.0813488691
 H        11.9333462430       -8.6486992890       -0.0910765884
 H        10.6761506189       -9.9471097092       -0.0165586308
 H        10.4914209375       -8.6265394083        0.9349767941
 H        11.3348024659       -6.3627795951       -0.7702454313
 H        10.4447572180       -6.2069032023       -2.1811229642
 H        11.7974332632       -7.3013048708       -2.1536203505
 H         9.1540936867      -11.5850620776       -8.1429507573
 H        10.1985042424      -11.8921189662       -6.6923625543
 H        10.4278437871      -10.4368128449       -7.7897218439
 H         8.7372858094       -8.2817922391       -7.4224718579
 H         7.1948994684       -8.8998583138       -7.0666815923
 H         7.9969000923       -9.6200546356       -8.3616087953
 Na        7.0710612113       -8.6869764948       -3.4461200976
 Na       -9.9825766084        2.9866002402      -13.5032708777
