232

 C       -19.5223484403       -9.3948961163       -0.7162374215
 C       -18.5678015879      -10.5718753466       -1.1019213460
 O       -18.0022257988      -10.6372376151       -2.1718126654
 C       -18.3350525018      -11.7272150825        0.0539034626
 C       -16.7694618956      -11.9478662964        0.2068669374
 O       -16.1946690343      -12.6847685445       -0.5914698731
 C       -15.9323784988      -11.3288306688        1.3320995425
 C       -14.5861447723      -10.8773117092        0.8006698544
 C       -14.7463988394       -9.7609553581       -0.1746444855
 O       -15.7990565849       -9.1073623255       -0.3076719717
 C       -13.4706670540       -9.3339678289       -1.1342346965
 C       -13.5572201469      -10.1177566602       -2.4439343864
 O       -13.9148478052      -11.2905900132       -2.4062361041
 C       -12.9826569466       -9.6314418811       -3.7505599215
 C       -13.3368377462      -10.6682742761       -4.7851861567
 C       -14.7294481054      -10.4881890375       -5.3327234546
 O       -15.6584708438      -11.0681860735       -4.7022273239
 C       -15.1220285700       -9.8317976497       -6.7103706791
 C       -14.5842489925       -8.2995588378       -6.7311936168
 O       -14.0324028851       -7.8535984929       -5.7540510259
 C       -14.8158436595       -7.5059361379       -8.0372237642
 C       -13.6790030161       -6.5037270276       -8.2746777419
 C       -14.1844518487       -5.2525410364       -9.1904000849
 O       -14.9629673680       -4.4283640696       -8.8614028193
 C       -13.5135324746       -5.1604337581      -10.7003170480
 C       -12.1104060712       -4.4847561036      -10.3909101260
 O       -11.3982044563       -5.1993548742       -9.6719242427
 C       -11.9478088401       -3.0544340488      -10.6737347190
 C       -10.8590290181       -2.3233341523       -9.8275882378
 C       -10.3353306995       -1.0945840130      -10.5957625045
 O       -10.7570443774       -0.8695538443      -11.6974774657
 C        -9.2667315683       -0.2300950363       -9.8753398517
 C        -7.8217987267       -0.6309219295      -10.2151217579
 O        -7.4618442696       -1.8376459297      -10.1153457224
 C        -7.0044085886        0.3611368249      -11.0747965260
 C        -5.5137105758        0.2152669473      -10.8522228407
 C        -4.6573613196        1.3805196355      -11.3357865601
 O        -4.8356205082        2.5058221526      -10.9323849390
 C        -3.2214568121        0.9415588747      -12.0622803363
 C        -2.2327241024        0.3344203726      -11.0227716639
 O        -2.1646699158       -0.8836595059      -10.8059854518
 C        -1.3677006504        1.2267524129      -10.0929504132
 C        -0.1743960828        0.3879325297       -9.5577902166
 C         0.1960705221        0.7028504001       -8.1523436197
 O        -0.5177660653        1.4812892496       -7.4835015194
 C         1.3428755985       -0.0782552930       -7.4256738776
 C         2.6514892921        0.6077040945       -7.6710507861
 O         3.6153538852       -0.0496638422       -8.1874912457
 C         2.7919997360        2.2015663060       -7.5683626049
 C         4.0961283410        2.6973622296       -8.2052009752
 C         3.8200102980        3.3111239466       -9.6101786364
 O         2.8069206439        2.9538658161      -10.2273745391
 C         4.6554348639        4.5204736532      -10.3895050041
 C         4.4891901689        4.3469692987      -11.9287925132
 O         5.1538574783        3.5653692639      -12.5810533391
 C         3.2681644386        4.9607988335      -12.7067226418
 C         3.3859915907        6.4473925458      -13.0345779777
 C         4.6084318780        6.7106974907      -14.0212312180
 O         5.5906376543        6.0295642235      -14.1569972250
 C         4.5312586411        7.8873760325      -15.0617072058
 C         5.6915453940        7.6839700553      -16.0056532179
 O         5.5203828447        7.0395024105      -17.0351309973
 C         7.0686182677        8.1770412148      -15.6711891898
 C         8.1748118581        7.5191495527      -16.5059940657
 C         7.9924710339        6.0422535985      -16.5804284375
 O         7.6383136826        5.4540463585      -15.5484708042
 C         8.0140670200        5.2230088583      -17.8428218913
 C         9.2373224449        4.1752693167      -17.8497293595
 O        10.0469968898        4.1036780204      -16.9533130861
 C         9.2985451016        3.1014090455      -19.0295548570
 C        10.3232605469        1.9603441603      -18.7747428491
 C         9.7888482764        0.8229094099      -17.9101225121
 O         8.5736185335        0.7093369053      -17.9138205170
 C        10.5923735791       -0.2547704084      -17.1115378195
 C        10.2921575960       -0.0596627746      -15.5649645048
 O        10.8055399294        0.7833777953      -14.9318748231
 C         9.3144875990       -0.9890250410      -14.6937842066
 C         8.6232220667       -0.2506335238      -13.5573593643
 C         7.4845024631        0.6254223910      -14.0174899322
 O         7.7242964375        1.7874801713      -14.1385906134
 C         6.0147244154        0.0548727776      -14.3454168986
 C         5.6628203239        0.6266893499      -15.7539327203
 O         5.4935682430        1.8091708275      -16.0064623057
 C         5.4932348998       -0.2752569384      -16.9233774533
 C         5.8812650884       -1.5934277457      -14.2732571459
 C         4.9233680756        0.7467180390      -13.3919338206
 C        10.0671250978       -1.6648216883      -17.6517830674
 C        12.1528126601       -0.0783219252      -17.3488010598
 C         6.6623752669        4.4295278409      -17.9334713233
 C         8.3046575545        5.9579701587      -19.1716120080
 C         3.3030450359        7.9251496964      -15.9462798547
 C         4.7447660363        9.2754749077      -14.3877338622
 C         4.1199368861        5.9475280598       -9.8373760268
 C         6.1803401012        4.4506692796      -10.0617718993
 C         1.0284709547        0.0277765403       -5.8274613139
 C         1.2892161918       -1.5842298310       -7.8095757286
 C        -3.6178086657       -0.2072511822      -13.0151775869
 C        -2.5099381290        2.2083852087      -12.5286500679
 C        -9.6205728221        1.2129076966      -10.1339585993
 C        -9.3985362703       -0.5416207388       -8.2295957756
 C       -13.3617935861       -6.5944415282      -11.1854376758
 C       -14.5693764587       -4.4795338992      -11.5297596180
 C       -14.3081604292      -10.7083754095       -7.6786552152
 C       -16.5557786342       -9.9115357685       -7.1440879106
 C       -13.4981375973       -7.8153226097       -1.1381124543
 C       -12.0911925251       -9.8428039655       -0.5316702408
 C       -18.9071728049      -11.3415059966        1.4317857389
 C       -19.0117752006      -12.9609508900       -0.6161057078
 H       -19.0781002396       -8.6519511899       -0.1197042345
 H       -20.3359167266       -9.9381130113       -0.1607069436
 H       -19.9592109713       -9.0358694748       -1.6374640362
 H       -15.7155501677      -12.0416160064        2.1175175650
 H       -16.4725687472      -10.4712428353        1.7135942646
 H       -14.0330624108      -11.6071906384        0.2808307876
 H       -14.0306117274      -10.4560536219        1.6404736722
 H       -11.8952074315       -9.5902956829       -3.5517627527
 H       -13.2489591707       -8.6332449625       -3.9837401937
 H       -13.2717295255      -11.6817143584       -4.2778399329
 H       -12.5420172625      -10.8530267196       -5.6114595648
 H       -15.7566049235       -6.9875891414       -8.2349870821
 H       -14.6402251231       -8.2361813665       -8.8735475393
 H       -12.7694028588       -6.8873321493       -8.6467517202
 H       -13.4509572694       -6.0163216311       -7.3052184893
 H       -12.8390929030       -2.5399679696      -10.4028018779
 H       -11.5641170438       -2.9156873080      -11.6781707751
 H       -10.0796073554       -3.1046928448       -9.7155522664
 H       -11.2205337080       -2.1229483981       -8.8127080037
 H        -7.2214866773        1.4704880519      -11.0143853770
 H        -7.3092835489        0.0182103349      -12.1058245549
 H        -5.1639772205       -0.7732350044      -11.1023658903
 H        -5.4510937387        0.1476291642       -9.6876696341
 H        -2.0442569534        1.4887076519       -9.3181020712
 H        -1.1189390918        2.1246910420      -10.6570426481
 H         0.5619096232        0.5240264931      -10.3056978868
 H        -0.6243166126       -0.6688374968       -9.7850057022
 H         2.9269011577        2.4426123321       -6.5890915199
 H         1.9279933310        2.6906403142       -8.0822317381
 H         4.7035449570        1.7767956998       -8.3799569845
 H         4.5281324847        3.4088735369       -7.4220042759
 H         2.3819934905        4.6612287094      -12.0452118298
 H         3.0944628701        4.3648313231      -13.6112472134
 H         3.5552622866        7.0786859458      -12.1771930553
 H         2.5309402031        6.8057964752      -13.5312709299
 H         7.2909803462        7.9875866862      -14.5765100616
 H         7.3194900063        9.2238441149      -15.8633421553
 H         9.1494232826        7.9414494584      -16.1447140136
 H         8.1408186907        7.9061583009      -17.6118618373
 H         9.7220377552        3.5965353197      -19.9282387407
 H         8.2984102060        2.7351163205      -19.1896364618
 H        11.2873000391        2.2911809313      -18.4803970365
 H        10.5601951761        1.4116666180      -19.7660302111
 H        10.0274247958       -1.6916854836      -14.3110143769
 H         8.4723427605       -1.3956214161      -15.2766407688
 H         9.3818992637        0.4419189697      -13.0769382043
 H         8.3923208851       -1.0109842975      -12.8304504873
 H         6.2572072193       -1.0471476351      -16.8361144986
 H         5.4844384560        0.2076787611      -17.9065453301
 H         4.5394261926       -0.9372116864      -16.8607213323
 H         4.9149813442       -1.9158347566      -14.7455162833
 H         5.9310040014       -1.9501298322      -13.2828118333
 H         6.5798125034       -2.0404448005      -14.9791028328
 H         3.9997419966        0.2871889140      -13.7242976740
 H         4.8542596028        1.7771880194      -13.4858876867
 H         5.1489826538        0.2512520958      -12.4280855214
 H        10.2017405946       -1.9011571726      -18.6752348310
 H         9.0396926876       -1.7172586370      -17.4217740495
 H        10.4746731792       -2.6016375727      -17.2998600142
 H        12.2539071890        0.1738995873      -18.4311292627
 H        12.7201494171       -0.9683351663      -17.0108822106
 H        12.5452650692        0.7722698561      -16.7848059019
 H         6.8564416232        3.5887210641      -17.2417346309
 H         6.6453417486        3.9909112699      -18.8771689203
 H         5.8426333315        5.0357242790      -17.7247145003
 H         9.2038463616        6.5284274767      -19.0835545825
 H         7.5079950330        6.6910737979      -19.3743835594
 H         8.1933344210        5.2369283364      -19.9837132417
 H         2.4551400463        8.1685325655      -15.3341937557
 H         3.2813833097        6.8624364947      -16.4086359861
 H         3.3625997264        8.6477188169      -16.7336684715
 H         4.8155831020       10.0973340727      -15.0996192817
 H         5.5837911873        9.1756790784      -13.6519401024
 H         3.7194278544        9.5237558860      -13.9042310003
 H         4.0532662158        6.1170832679       -8.7467956677
 H         3.0533142983        6.0799062123      -10.0317430146
 H         4.5453311326        6.8133812871      -10.3538524132
 H         6.6808250477        5.0339075939      -10.7930123207
 H         6.6132993451        3.5133691088      -10.3026968499
 H         6.3504711514        4.7380324778       -9.0664353365
 H         0.6062059278        1.0662015807       -5.5488345245
 H         1.9509394677       -0.1484598470       -5.2624432714
 H         0.2609286221       -0.6057081759       -5.3051406105
 H         0.1912944739       -1.7508779460       -7.9399511705
 H         1.5570631599       -2.2497153929       -6.9520727292
 H         1.8445108763       -1.7988519980       -8.7396095409
 H        -3.2442248708       -1.1094118074      -12.6128761529
 H        -3.3120695405       -0.0135418839      -14.0497475356
 H        -4.6399503863       -0.2999391507      -13.0641163427
 H        -1.4993672870        2.0173265985      -12.5676868799
 H        -2.5788272554        3.0458239385      -11.8608177461
 H        -2.9222937409        2.4934707122      -13.5184216408
 H       -10.5631210816        1.4516031188       -9.7950004143
 H        -9.5422372350        1.5647271606      -11.1740143682
 H        -8.9778264410        1.8842215318       -9.5804888813
 H       -10.4028971306       -0.4157902481       -7.8008529215
 H        -8.7309858724        0.2470755470       -7.7934896683
 H        -8.9429000836       -1.5274492961       -8.0528467542
 H       -13.1780492635       -6.4436356942      -12.2624012169
 H       -14.3020222755       -7.0908111520      -11.1745106202
 H       -12.5852145081       -7.2541056832      -10.8139458219
 H       -15.5382427245       -4.9426777173      -11.4211770738
 H       -14.2954862309       -4.3739669583      -12.6027515387
 H       -14.7899243984       -3.5178179822      -11.2114434495
 H       -13.2336492446      -10.7085631216       -7.4890151472
 H       -14.4785827306      -10.3806774764       -8.6679341357
 H       -14.6522852126      -11.7352251220       -7.6971910958
 H       -17.3115444216       -9.2170609018       -6.7122310500
 H       -17.1502161450      -10.8202134769       -6.8992212333
 H       -16.6012786318       -9.7085644450       -8.1283540700
 H       -14.5249369825       -7.4166340222       -1.3438895426
 H       -12.8681644378       -7.4044478661       -1.9262728319
 H       -13.2667277205       -7.3527349638       -0.1815048435
 H       -11.9838608869      -10.9020263889       -0.6622184133
 H       -12.1746071958       -9.7137681993        0.4885242420
 H       -11.2554749506       -9.3040112216       -1.0238655552
 H       -18.3269480995      -10.4449389832        1.8079102439
 H       -18.8229132738      -12.2275311049        2.1010723679
 H       -19.8429835019      -10.9107385296        1.5176610383
 H       -19.5219424267      -13.4830927697        0.1593876581
 H       -18.2317313887      -13.7070755228       -0.9476469730
 H       -19.7318946533      -12.7039902249       -1.4384564341
 Na      -16.2294343215      -11.8731127798       -2.7027910922
 Na        6.4675407842        3.6829397807      -14.6958123002
