232

 C         7.5947590609      -12.4420817343       -7.3342953497
 C         7.8394353714      -11.0981074583       -6.6630239582
 O         7.0557455904      -10.8323306031       -5.7544543094
 C         9.0504247755      -10.2487448703       -6.9925878770
 C         9.5334232139       -9.3262297193       -5.7799305686
 O         8.8954966431       -8.4239847533       -5.4055788789
 C        11.0623762900       -9.5433659052       -5.2418779074
 C        11.2755653180       -8.8976132827       -3.8314886311
 C        10.1285012045       -8.9851605820       -2.8928785479
 O         9.3272688755       -9.8185565081       -3.1765481869
 C         9.8429908639       -7.6739371127       -1.9478948694
 C         8.5667980924       -8.1483959511       -1.1752177278
 O         7.4757041717       -7.8887135027       -1.6178552098
 C         8.6951513709       -9.1011131624        0.0148062170
 C         7.4188783319       -9.7037855368        0.6291626655
 C         6.2727621743      -10.1227917046       -0.3519745831
 O         6.5048328175      -10.5799330744       -1.4991780548
 C         4.7977442172       -9.7392592899        0.0844799656
 C         4.4295342925       -8.3347626104       -0.7029087086
 O         4.2950419984       -7.2367663631       -0.1242623885
 C         3.9908620310       -8.5535987867       -2.1157391094
 C         3.8327233263       -7.1043860193       -2.8818145239
 C         5.0752121383       -6.7666871887       -3.6967228247
 O         5.8820399901       -7.5886934966       -4.0405511362
 C         5.1158434388       -5.3176054511       -4.4445541611
 C         3.9834736387       -5.4431902349       -5.5672434022
 O         3.9871135682       -6.3850390488       -6.2982434919
 C         3.0281077767       -4.2191872682       -5.8049855284
 C         2.0964218171       -4.4478165196       -6.9574215183
 C         1.2870418476       -3.2642626311       -7.3875612661
 O         0.9763449307       -2.3729686897       -6.6093564001
 C         0.7525461583       -3.2289324710       -8.9395253918
 C        -0.6019296286       -2.2898183645       -9.0171706949
 O        -0.7193342643       -1.4433433888       -9.9169558015
 C        -1.7318901897       -2.5281009069       -7.9859752612
 C        -2.6953393107       -1.3114124491       -7.8241242532
 C        -4.2235498728       -1.7483714341       -7.6786928985
 O        -4.7560130769       -2.7932045867       -8.0803903776
 C        -5.1092854598       -0.4862126282       -7.2632860094
 C        -4.7916626948        0.7519512822       -8.4142526993
 O        -5.0203418183        0.5841460766       -9.5724886383
 C        -4.0409019183        2.0730143632       -7.8793282265
 C        -4.4203393446        3.2490904706       -8.9273841355
 C        -5.5365591460        4.0402595943       -8.3097185037
 O        -6.2609899904        3.4741285228       -7.5454543303
 C        -5.6817936966        5.6505163982       -8.7700104090
 C        -6.5965904036        5.5216564776       -9.9726605989
 O        -6.1393281982        4.8786335802      -10.9055592614
 C        -8.0236811031        5.9742248458       -9.9414730352
 C        -8.4221829185        6.6972988251      -11.2350605435
 C        -8.3496056256        5.6959902494      -12.4092326373
 O        -8.8696049019        4.6101268426      -12.3304089771
 C        -7.7815907970        6.1508148748      -13.8240527575
 C        -7.7123725388        5.0988573306      -15.0042815863
 O        -8.5973691282        5.0077407357      -15.8518121034
 C        -6.3940172270        4.1978741469      -14.9561747902
 C        -6.5916117368        2.9911189005      -16.0145871960
 C        -7.7916183693        2.0757398031      -15.6086106081
 O        -8.1112850713        1.9648216397      -14.5111605113
 C        -8.5788937981        1.4164612589      -16.7203078105
 C        -9.9806493392        0.8686849314      -15.9745844922
 O       -10.8213670160        1.6697071986      -15.5941168256
 C       -10.1515887893       -0.6236866600      -15.5985131360
 C       -10.8173937223       -0.9299909496      -14.3219505298
 C       -12.3168754526       -0.5191204125      -14.3737912173
 O       -12.8430339032       -0.5370052005      -15.4375910106
 C       -13.0328395420       -0.0195333690      -13.0434850889
 C       -12.5043213427        1.4037294151      -12.8699435177
 O       -11.3399710469        1.4404046878      -12.6274635816
 C       -13.3034808527        2.6718087545      -13.0177066505
 C       -13.7276447252        2.9575556899      -14.5614753412
 C       -13.0162538412        4.1844043440      -15.0631866532
 O       -12.0717904680        4.7130332856      -14.4526866703
 C       -13.6306907621        4.9709074939      -16.2473484523
 C       -14.0390608012        4.1005414026      -17.5557333352
 O       -14.3801756069        2.9297835197      -17.4446883538
 C       -13.8939632026        4.6665320643      -18.8994380658
 C       -14.8462209419        4.1313173117      -19.9515014881
 C       -14.6411397021        4.8757326867      -21.2930838012
 O       -14.6451607114        6.0558415061      -21.4004166232
 C       -14.4837439764        3.9358946507      -22.5657128909
 C       -13.2812701642        2.9895975348      -22.2220360143
 O       -12.3025064169        3.3701801013      -21.5134570260
 C       -13.1703262101        1.6791479987      -22.9438495958
 C       -15.7762940199        3.1979964440      -22.8137239271
 C       -14.0279710595        4.7174765966      -23.8426921354
 C       -14.9763028824        5.6019355915      -15.6873931668
 C       -12.6738501265        6.1145140744      -16.5552553559
 C       -14.5561584223       -0.1823509047      -13.2067402718
 C       -12.5182276801       -0.8581546861      -11.8877821244
 C        -9.0521521038        2.4952235423      -17.7596340578
 C        -7.7139005220        0.3956725546      -17.4765062917
 C        -8.8061848441        7.1724942048      -14.2647144359
 C        -6.3772178611        6.7410432881      -13.6342631670
 C        -6.3282132470        6.2624677113       -7.5285408754
 C        -4.3654169404        6.3688649741       -9.0587936809
 C        -6.6881203396       -0.6989657190       -7.3039963274
 C        -4.7616585800       -0.1585146884       -5.7269116007
 C         1.9215166299       -2.4625779997       -9.7231320531
 C         0.4955769157       -4.6275291140       -9.5291328610
 C         4.9686974478       -4.1075933279       -3.4698308803
 C         6.4608374134       -5.3139618081       -5.2531767079
 C         3.9917049466      -10.9580409239       -0.3278119977
 C         4.7011804202       -9.5308446629        1.6634622404
 C        11.0141048568       -7.6375946001       -1.0131850834
 C         9.5390465959       -6.4762832644       -2.9186015295
 C        10.2574785984      -11.0641424704       -7.5231072971
 C         8.5048828953       -9.2410580843       -8.0447991714
 H         7.4305861722      -12.3440470752       -8.3941732401
 H         6.7397014067      -13.0113165754       -6.8690239657
 H         8.5022558370      -13.1345844522       -7.3025132806
 H        11.5979226865       -9.1758310046       -6.0481431203
 H        11.2939077286      -10.5447667710       -5.1837108595
 H        11.5621206498       -7.8551733462       -3.9949850650
 H        12.0546922249       -9.4262724780       -3.4512136252
 H         9.3878643873       -8.7421144247        0.7487738166
 H         9.1841063839       -9.9327401302       -0.4401159131
 H         7.0521464718       -9.1538127121        1.4192991095
 H         7.6945791227      -10.7024045342        1.0013663411
 H         2.9914768178       -9.0404180480       -2.0784326115
 H         4.5079895102       -9.2091303045       -2.8117585311
 H         3.7051840243       -6.3679629247       -2.0180458834
 H         2.9675919261       -7.1709843984       -3.4827440179
 H         3.6194418335       -3.3159567660       -5.9926668022
 H         2.3507442719       -4.0154765204       -4.9623080112
 H         1.3309918404       -5.2358278557       -6.7342860847
 H         2.6355523909       -4.8050864303       -7.8360665795
 H        -1.4235876747       -2.8816018025       -7.0725985439
 H        -2.2956396117       -3.2440996443       -8.4885464083
 H        -2.6933531733       -0.8874055858       -8.9020321138
 H        -2.4143771997       -0.5280648710       -7.0929209124
 H        -2.9289552170        1.8149083551       -8.0207468822
 H        -4.2607331225        2.4506591779       -6.9178783466
 H        -4.7623035243        2.8213753664       -9.9048995121
 H        -3.5566444186        3.8781309399       -9.1578840124
 H        -8.2550712195        6.8109608829       -9.1984023461
 H        -8.7510475275        5.1703400241       -9.8628938248
 H        -7.8031859380        7.4614737332      -11.5270445554
 H        -9.4074045907        7.0796869855      -11.2416585723
 H        -6.2890024773        3.8963278270      -13.9554073228
 H        -5.5494995201        4.9493718862      -15.1433908760
 H        -5.6912968707        2.3611222936      -15.9427137414
 H        -6.6452568302        3.3361127392      -17.0395501875
 H        -9.0899767991       -0.9836638584      -15.5293752855
 H       -10.4553170822       -1.1662064181      -16.5075773412
 H       -10.3447483908       -0.3764924103      -13.5105271838
 H       -10.7132595650       -2.0053867518      -14.0228923951
 H       -12.6102286225        3.4262468171      -12.6056526015
 H       -14.2333309882        2.5260897669      -12.4911188391
 H       -14.7752279699        3.1206056516      -14.7321057312
 H       -13.4771787067        1.9826258435      -14.9786971763
 H       -12.8683521381        4.6382246116      -19.2829543117
 H       -14.0769557571        5.7578917716      -18.7774327576
 H       -15.8656683160        4.3229067825      -19.6053318890
 H       -14.6677215730        3.0878511233      -20.1430387854
 H       -13.2139340303        1.9634593508      -23.9394163992
 H       -14.0624026545        1.1208574976      -22.5513388075
 H       -12.1828766164        1.2650258286      -22.6147316647
 H       -16.6833649380        3.7717054541      -23.0568818796
 H       -15.9954546494        2.5145711424      -22.0220021741
 H       -15.7267657487        2.5893739726      -23.7483993654
 H       -14.7764606266        4.5848653289      -24.7276960902
 H       -13.1021313179        4.2536994378      -24.1011965208
 H       -13.8285429182        5.7477085184      -23.5499768580
 H       -15.7560426627        4.8208657896      -15.5897423980
 H       -15.1885642805        6.3742187907      -16.4385863407
 H       -14.7937090145        5.9985226027      -14.6738368020
 H       -12.7933493786        6.9182643881      -15.7784782042
 H       -12.7250948324        6.6031748392      -17.5299654625
 H       -11.6635214228        5.8152757351      -16.4060988968
 H       -14.7935414994       -0.4027912273      -14.2416513879
 H       -15.0742337321        0.7005491348      -12.8364401596
 H       -14.8958533630       -1.0282453053      -12.6880520752
 H       -12.9947687476       -0.6474939110      -10.9273015924
 H       -11.4506823704       -0.8677874813      -11.5447846205
 H       -12.7701675385       -1.8546175592      -12.0864970058
 H        -9.1783821009        2.0990432906      -18.7339290987
 H        -8.3896447350        3.3498968439      -17.8815380275
 H        -9.9715947818        2.8678871183      -17.4718388354
 H        -6.8754508505        0.9641937595      -17.9014266612
 H        -8.2505011430       -0.0939640725      -18.2971248584
 H        -7.3264422447       -0.2814983413      -16.7131439519
 H        -9.7157295798        6.6279903116      -14.4509173508
 H        -8.4364067682        7.5910561395      -15.1613066470
 H        -8.8970976565        8.0429994512      -13.5957144846
 H        -6.3862109511        7.3521005562      -12.7659710932
 H        -6.1315002203        7.3774798684      -14.4662510300
 H        -5.5634328720        6.0927139747      -13.5546769571
 H        -7.2889109610        5.6996393499       -7.4245601437
 H        -6.4204417113        7.3277325290       -7.6801607084
 H        -5.7325566427        6.1809348366       -6.6375523743
 H        -3.8576971420        6.0240540714       -9.9096745382
 H        -3.6974265782        6.2168295178       -8.2362111625
 H        -4.6804049506        7.4354169655       -9.1279225152
 H        -7.2294772181       -0.5221489215       -8.2631349023
 H        -7.0582945150       -0.0335634701       -6.5712938619
 H        -6.9887688574       -1.7418633542       -6.9958048245
 H        -5.1142514766        0.8629066350       -5.6233484395
 H        -3.7344025304       -0.2091546703       -5.4865650433
 H        -5.3552675954       -0.8103308351       -5.1293388062
 H         1.3704454239       -1.9327456550      -10.5310887012
 H         2.5025911668       -3.1775762766      -10.1905505676
 H         2.4368603269       -1.7326842725       -9.1113578678
 H         1.4543552172       -5.1373766377       -9.5746617589
 H         0.0676460974       -4.5702159162      -10.5228432239
 H        -0.2240612141       -5.1202330326       -8.8956825415
 H         5.6560018392       -4.2635592382       -2.6358904259
 H         3.9450392716       -4.1512269323       -3.1106291095
 H         5.2158019403       -3.2075449138       -4.0093044630
 H         6.5159111017       -4.3410453720       -5.7627922259
 H         6.4826553266       -5.9976167372       -6.0821296795
 H         7.2008123640       -5.5650560614       -4.5265662070
 H         4.0489931590      -11.3300497280       -1.3971583336
 H         2.9408499251      -10.9627931616       -0.0782929566
 H         4.3695003591      -11.6683229092        0.3497960312
 H         5.0514991378       -8.5566278444        1.9115062427
 H         5.1631150458      -10.4225447356        2.0852234011
 H         3.6658774085       -9.6217509614        1.8470845816
 H        11.9221171512       -7.2599163899       -1.5447217021
 H        11.2378683225       -8.5870658246       -0.4271021059
 H        10.7779844835       -6.9133113051       -0.2644485922
 H         8.9666160451       -5.6890841504       -2.4836905568
 H         8.9104017001       -6.9009310439       -3.6479850785
 H        10.4557292685       -6.1841480872       -3.4321230207
 H        10.0311797769      -11.6279873360       -8.4117383244
 H        10.7132814183      -11.7588042725       -6.8548371813
 H        10.9814148279      -10.3305212326       -7.8859376450
 H         9.3470081197       -9.1382850239       -8.7053226741
 H         8.2601270069       -8.3031624858       -7.5387398350
 H         7.6131611688       -9.6315951775       -8.6244047809
 Na        7.0463222923       -9.5326755207       -3.5841187869
 Na      -10.3220559253        3.1456808152      -13.8106444306
