232

 C         7.6658764856      -12.3931763614       -7.1947299854
 C         7.8164701128      -11.0949268300       -6.5074854035
 O         7.1855009894      -10.6568958239       -5.5815519365
 C         9.0456359788      -10.1235133252       -7.0750797591
 C         9.5579020855       -9.3554135085       -5.8346844012
 O         8.8368789632       -8.6465742539       -5.2092566529
 C        11.1675799222       -9.4334366549       -5.4697303668
 C        11.3271373155       -8.7171176122       -4.0803223698
 C        10.1179922127       -8.9402763571       -3.1374289135
 O         9.5298322074      -10.0147857745       -2.9836612476
 C         9.8682056188       -7.6307870191       -2.1174454636
 C         8.6634921075       -8.1277332895       -1.1654581698
 O         7.5177484421       -7.8699794787       -1.4817792367
 C         8.9243575745       -9.2993370276       -0.0463844402
 C         7.5848644402       -9.5798243900        0.7251775211
 C         6.5617308632      -10.2017709216       -0.3088991226
 O         6.9079072699      -10.6126427706       -1.3880475204
 C         5.0607797945       -9.8873092420        0.1000980630
 C         4.7438436282       -8.4863979376       -0.6103091864
 O         4.9056870747       -7.3718589123       -0.0681694940
 C         4.1956557884       -8.4860615156       -2.0141086277
 C         4.3314618830       -7.0452608993       -2.6426617334
 C         5.2086203382       -6.9381134993       -3.8673653086
 O         5.7055825743       -7.9057632042       -4.4448025868
 C         5.1854427315       -5.4907588162       -4.5070940789
 C         3.9421027877       -5.6079849866       -5.5672449480
 O         3.7251002476       -6.6174727570       -6.1016088280
 C         3.1934537901       -4.3394130525       -5.8176227974
 C         2.2434500471       -4.5088831369       -6.9832228264
 C         1.4358177494       -3.3097269237       -7.3389284762
 O         1.3427886951       -2.3116302228       -6.6207672200
 C         0.6969002164       -3.2043318465       -8.6896335851
 C        -0.5519407663       -2.2848017646       -8.8085669811
 O        -0.3400371719       -1.1799071056       -9.3359137486
 C        -1.8934669595       -2.7962221569       -8.2553869848
 C        -2.7307433777       -1.5831009051       -7.8529430121
 C        -4.1975081997       -1.8647246372       -7.7728624758
 O        -4.6496913537       -2.9952338983       -8.0225869813
 C        -5.0675159509       -0.5186215072       -7.4578589881
 C        -4.8163590151        0.7498177593       -8.4380785842
 O        -5.0938553409        0.6873514004       -9.6033560845
 C        -4.1096746802        1.9469270946       -7.9363800742
 C        -4.4521013370        3.2341657898       -8.7109302389
 C        -5.7019516864        3.9800673228       -8.1885115517
 O        -6.4777538902        3.4779105092       -7.4477454853
 C        -5.8293173352        5.5361818336       -8.5403654260
 C        -6.7462772244        5.6585107512       -9.9157735099
 O        -6.2893503629        5.1728997568      -10.9486679181
 C        -8.1179702272        6.3220741602       -9.9915239555
 C        -8.5328604277        6.8763009739      -11.3364043713
 C        -8.5530544922        5.7574901513      -12.4356933531
 O        -9.1419984009        4.7522339696      -12.3571489451
 C        -7.7534569050        6.1787212526      -13.7600685901
 C        -7.7730191584        4.9456790850      -14.7601520572
 O        -8.7091778833        4.4613436528      -15.3731462908
 C        -6.4343251473        4.0442594866      -14.8458729315
 C        -6.5893816837        2.9145329636      -15.8634427473
 C        -7.9003960880        2.0367489234      -15.5968829480
 O        -8.2523084856        1.9003023532      -14.4297335246
 C        -8.6975985396        1.3541344760      -16.7396618971
 C       -10.0480027344        0.8258642046      -16.0537819942
 O       -10.8803058842        1.6442026068      -15.7505794508
 C       -10.2398204694       -0.6333361218      -15.8160573894
 C       -10.8760877373       -0.7592798607      -14.4353988332
 C       -12.4085846006       -0.3072516493      -14.5128608867
 O       -13.1168416432       -0.2596212771      -15.4720733487
 C       -13.0189839552        0.1847357922      -13.1276879578
 C       -12.4348213173        1.6020480974      -12.8563511408
 O       -11.2700814419        1.6472856381      -12.6216793363
 C       -13.4005580554        2.7794451759      -12.9966005053
 C       -13.7582063518        3.0693813885      -14.5308524884
 C       -12.9688739355        4.2660084020      -15.1797195948
 O       -11.7674449811        4.3568382404      -14.9553341735
 C       -13.7118017451        5.2267261915      -16.1608217831
 C       -14.1850360108        4.2697208026      -17.4766424257
 O       -14.5356315917        3.1221480964      -17.2264029757
 C       -14.0764459059        4.9472684949      -18.8167253881
 C       -14.6603088522        4.0286445726      -19.9104065837
 C       -14.6840102751        4.7029221169      -21.2887884968
 O       -14.8585230875        5.8631014427      -21.3762595436
 C       -14.5544786604        3.8147731814      -22.5893889586
 C       -13.2156105319        2.8897352016      -22.4490118842
 O       -12.3377688814        3.2528825386      -21.6400829766
 C       -13.1313069828        1.6397066873      -23.3371568568
 C       -15.8375086820        3.0215218480      -22.7802710807
 C       -14.6316722477        4.7956729668      -23.8504117143
 C       -15.1777001026        5.6260124264      -15.8009560570
 C       -12.7764673842        6.4918156099      -16.4362959410
 C       -14.6498706737        0.2187339602      -13.2196277204
 C       -12.7383468299       -0.7710648662      -11.8917789573
 C        -8.9475124346        2.4184427153      -17.8089026695
 C        -7.7488249256        0.2742464646      -17.3066320595
 C        -8.5983813390        7.3357334593      -14.4223627868
 C        -6.3149724841        6.7349993418      -13.5106368326
 C        -6.4125125751        6.4022039154       -7.4340594111
 C        -4.5461124032        6.2505463109       -9.0053082026
 C        -6.5814282298       -0.9078745653       -7.4629521299
 C        -4.6945213923       -0.0931946638       -5.8957751010
 C         1.7920134569       -2.5067213512       -9.5350821717
 C         0.2832683508       -4.6588580665       -9.2715320671
 C         4.8097222245       -4.4019161570       -3.4266693182
 C         6.4720989759       -5.1459862337       -5.2286004929
 C         4.0633391838      -10.9727103110       -0.4435225830
 C         4.7318936844       -9.7747529493        1.6722992999
 C        11.1213294342       -7.2982325406       -1.2861678383
 C         9.2916762032       -6.3085126976       -2.8982763465
 C        10.2034831500      -10.9694506882       -7.7309925442
 C         8.4603485886       -9.1638753516       -8.3256539006
 H         7.9142475695      -12.3376142130       -8.2153783948
 H         6.6482586774      -12.7299169533       -7.0612058876
 H         8.2484775781      -13.2729084818       -6.8449703932
 H        11.7201484613       -8.9481406458       -6.3510656325
 H        11.4132527649      -10.4946728200       -5.5488854129
 H        11.6617119489       -7.6448686519       -4.3407821157
 H        12.2001914275       -9.2040364124       -3.6398941897
 H         9.7387614151       -9.1791935279        0.6686100025
 H         9.1759041732      -10.2297062463       -0.5998255062
 H         7.1864069744       -8.6715867698        1.2012901561
 H         7.7762552826      -10.3375176159        1.5008885057
 H         3.1302923842       -8.8392913075       -2.0986788677
 H         4.7010560132       -9.2224620689       -2.5839994390
 H         4.6751631907       -6.5935168099       -1.7007422920
 H         3.3506905889       -6.6160230288       -2.8601305954
 H         3.8960193291       -3.4779982525       -6.0630594731
 H         2.5944105359       -4.1136175990       -4.9691264429
 H         1.4023739989       -5.2060090114       -6.7556175226
 H         2.7456412324       -4.8497620609       -7.8136741557
 H        -1.7244301649       -3.4630784784       -7.3140636576
 H        -2.5671558440       -3.2834720922       -9.0728712635
 H        -2.6602921435       -0.8746613811       -8.6385004399
 H        -2.3745953174       -1.1891680770       -6.9449596709
 H        -2.9944521695        1.7212867632       -7.9614837202
 H        -4.3417212298        2.2006688636       -6.8525057087
 H        -4.3166312842        3.1493779851       -9.7697568437
 H        -3.6723015133        3.9361128817       -8.3741313292
 H        -8.3286518805        7.1599020598       -9.3374375697
 H        -8.7368219117        5.5537709217       -9.7109593299
 H        -7.8451036505        7.6268404967      -11.6969442039
 H        -9.5950810476        7.3250556855      -11.4666212392
 H        -6.3842414493        3.6073575617      -13.8962975540
 H        -5.5482540162        4.7372551588      -14.9577675625
 H        -5.7274449346        2.1957523674      -15.6122778402
 H        -6.3331670490        3.1723923513      -16.8882867621
 H        -9.2632625676       -1.1718389435      -15.9244706693
 H       -10.8886528255       -1.0474727047      -16.5379940930
 H       -10.3652537354       -0.1881844239      -13.6263171532
 H       -10.8360580955       -1.9177548500      -14.1367570242
 H       -12.9216936572        3.6796945902      -12.6809368115
 H       -14.3512169357        2.6015652043      -12.4965803507
 H       -14.8735533432        3.2082408148      -14.4659865806
 H       -13.5576863735        2.3753601345      -15.3681082455
 H       -13.0012153878        4.9478003433      -18.9978255579
 H       -14.3085817990        5.9688676653      -18.8587796531
 H       -15.7062564085        3.8272467963      -19.5702361130
 H       -14.0626618192        3.1238535199      -19.9662686886
 H       -14.0075166266        1.7345606381      -23.8260354608
 H       -13.1615962450        0.7988472198      -22.6492184170
 H       -12.2201010755        1.6881140332      -23.9431591976
 H       -16.6204572912        3.7797227120      -22.6468635672
 H       -16.0811689374        2.2810157044      -21.9491616913
 H       -16.0024477560        2.3342229784      -23.6307801400
 H       -15.5065428789        4.5567979116      -24.5708657512
 H       -13.7677186130        4.8212613340      -24.5087856758
 H       -14.7489073119        5.7763116068      -23.3497073167
 H       -15.6801393134        4.6599174643      -15.5928295224
 H       -15.5607529600        6.0760912995      -16.6600342554
 H       -15.1702169095        6.2965378906      -14.9388250380
 H       -12.7579605581        7.3358683268      -15.7461147889
 H       -13.1878824336        6.9529717131      -17.3453769397
 H       -11.7434683063        6.2759995249      -16.5933079470
 H       -14.8068519343        1.0726620701      -13.9239394106
 H       -15.1099353613        0.4225459003      -12.2066271707
 H       -15.0286748525       -0.6310357276      -13.7520491824
 H       -13.3595083607       -0.4853821427      -11.0902887469
 H       -11.6667532374       -0.8355757780      -11.4867144436
 H       -13.0512897297       -1.8115335453      -11.9402480828
 H        -9.9111045624        2.1998316149      -18.3951817806
 H        -8.1487163291        2.5401509526      -18.5798480627
 H        -9.2104608755        3.3661563655      -17.3842078754
 H        -6.9322699170        0.6872977221      -17.8596411643
 H        -8.3259047755       -0.3399311347      -17.9432786358
 H        -7.4333909379       -0.3538944304      -16.4487756425
 H        -9.6727360420        6.9715162666      -14.5173679746
 H        -8.1909335926        7.6831501500      -15.3641081161
 H        -8.4915329157        8.2032752980      -13.8183149601
 H        -6.3622969260        7.7860474338      -13.1729747861
 H        -5.5113052232        6.6217868340      -14.2759163865
 H        -5.8900488321        6.1752206120      -12.6256925176
 H        -7.3590471302        5.8663202662       -7.0835254455
 H        -6.5303083450        7.4092696171       -7.6688474170
 H        -5.6500080696        6.3735017802       -6.6479296978
 H        -4.0647524700        5.8923330740       -9.8667651066
 H        -3.8252926033        6.2540481218       -8.1590366215
 H        -4.8858769701        7.3269877143       -9.2112422143
 H        -6.7388125671       -1.8809677314       -7.8467442367
 H        -7.1177223371       -0.2356347558       -8.1160781243
 H        -7.0444421192       -0.8057356379       -6.4548817973
 H        -5.4492857106        0.5269412327       -5.4867157964
 H        -3.8205619099        0.5277357848       -5.9428986891
 H        -4.5829589617       -1.0551946077       -5.3550781038
 H         1.4988156557       -2.6307769799      -10.6065083357
 H         2.7880785823       -2.9597763907       -9.3735099663
 H         1.8025344971       -1.4746017550       -9.1900218817
 H         1.2551003234       -5.2386207211       -9.2233449173
 H        -0.1211824814       -4.7053654078      -10.2478232938
 H        -0.5232374793       -5.1114399454       -8.6003896171
 H         5.5269164207       -4.5616032265       -2.6019229982
 H         3.7502358780       -4.5219773795       -2.9709266187
 H         4.8568255008       -3.4551601396       -3.8797301873
 H         6.2500775234       -4.8150285090       -6.2781126438
 H         7.0985369925       -6.0292312833       -5.3524937113
 H         7.0947367803       -4.4487933212       -4.6377691598
 H         4.3174114120      -11.5247019687       -1.3498482175
 H         3.1300208042      -10.4709966530       -0.5906931880
 H         3.8451452938      -11.7742037151        0.2736824488
 H         5.4354605813       -9.0104482626        1.9927481237
 H         4.8220708313      -10.8376708816        2.0415649797
 H         3.7180202244       -9.4073444068        1.8383967253
 H        11.8059757803       -6.8658849410       -1.9749976134
 H        11.4555084131       -8.2704541354       -0.8615633262
 H        11.0381637944       -6.6907400158       -0.4357464426
 H         9.3175284212       -5.4754140523       -2.1800516492
 H         8.1968929823       -6.4777495420       -2.9419983507
 H         9.6957928314       -6.0604956272       -3.8969204150
 H         9.9637472112      -11.4581011456       -8.6765877740
 H        10.5611256266      -11.7618729526       -7.0202084531
 H        11.0831426676      -10.4152095170       -8.0474730252
 H         9.0823448183       -8.3439041376       -8.5934242088
 H         7.4698872425       -8.8502059558       -8.0285255700
 H         8.3223023731       -9.8675621863       -9.1114753524
 Na        6.9695233219       -9.6719862287       -3.6000252189
 Na       -9.9931145342        3.3001972185      -14.0757675464
