232

 C         7.3853816006      -12.3910881018       -7.2283755605
 C         7.8530755731      -11.2675461227       -6.3775686050
 O         7.6721028649      -11.1604528178       -5.2206607072
 C         8.8764619774      -10.1859495730       -7.1130786060
 C         9.4498512260       -9.2254884421       -5.9544681514
 O         8.7011610080       -8.3293902962       -5.5185119271
 C        11.0692207039       -9.3838666119       -5.6226936054
 C        11.4315385950       -8.5305317082       -4.3571132755
 C        10.4546713481       -8.6688076604       -3.1821435964
 O        10.1332723601       -9.8233786592       -2.9710561914
 C        10.1056664401       -7.4918741916       -2.1653373585
 C         8.9524245173       -8.0753345860       -1.2318690659
 O         7.7764384123       -7.8429100662       -1.5058496457
 C         9.2517555871       -9.1030395038       -0.1134842514
 C         8.0077896631       -9.6903258237        0.5815841638
 C         7.0028991909      -10.2893045957       -0.4216048979
 O         7.2172807551      -10.8814973594       -1.4874062019
 C         5.4712059789      -10.2707028488        0.1602449728
 C         4.9933583787       -8.7881842283       -0.2885487460
 O         4.8838044965       -7.9433021559        0.5710060178
 C         4.5676644063       -8.6301243931       -1.7179505077
 C         4.7660677998       -7.1295803427       -2.2332711459
 C         5.4385638865       -6.9483014552       -3.5575702987
 O         6.2009419378       -7.7666004459       -3.9918158894
 C         5.1986374589       -5.5805048454       -4.4940525537
 C         3.7924795234       -5.7543805662       -5.3595500781
 O         3.4039195423       -6.8630255171       -5.5261631953
 C         3.2038299647       -4.5721134404       -6.0303901668
 C         2.3168406675       -4.6752131906       -7.2809477214
 C         1.3801014600       -3.4606776305       -7.4874345112
 O         1.4175553078       -2.5535735870       -6.6468253848
 C         0.6342906525       -3.2523074663       -8.9458716453
 C        -0.3093304113       -2.0211039400       -8.6600159851
 O         0.0572898882       -0.8612117457       -8.5920025025
 C        -1.8119438220       -2.2728028020       -8.4975614753
 C        -2.6746225818       -1.0473208380       -7.8918738330
 C        -4.1281879872       -1.4891637662       -7.8285039782
 O        -4.4403009786       -2.6246598129       -8.1446629578
 C        -5.3268882956       -0.5835017440       -7.4659709719
 C        -5.1081458246        0.6748343412       -8.3815744169
 O        -5.0170329045        0.4145447914       -9.6181813519
 C        -4.5974333295        1.9310812133       -7.6668987739
 C        -4.7676949577        3.2479108287       -8.4605837796
 C        -6.0062641485        3.9940642548       -8.1343955172
 O        -6.9123515041        3.5792176509       -7.4764297809
 C        -6.0446760979        5.5751442382       -8.6034782782
 C        -6.8501090432        5.5150504567       -9.9151759971
 O        -6.3048010310        5.0139029812      -10.8881502669
 C        -8.2032317184        6.1458026661      -10.0485083944
 C        -8.3070740801        6.9450431808      -11.3300389934
 C        -8.4585024100        5.9663954317      -12.4756673738
 O        -9.3835804256        5.1983684815      -12.3704230235
 C        -7.6627974663        6.1436037276      -13.7495888110
 C        -7.7052194205        4.7949945599      -14.7411784849
 O        -8.5943437148        4.5287865522      -15.4630084602
 C        -6.3987336816        3.9279715722      -14.5114453895
 C        -6.5549419690        2.7179704263      -15.4777051128
 C        -7.7810048987        1.8058700788      -15.2531981902
 O        -8.3407681604        1.6795724759      -14.1507163052
 C        -8.5608408351        1.2681448939      -16.5047098617
 C        -9.9913319742        0.9048507810      -15.9793023430
 O       -10.6886661040        1.7165784494      -15.3906735493
 C       -10.6497458495       -0.4698399812      -16.0877500736
 C       -11.3599631231       -0.7986361733      -14.7762487239
 C       -12.7932876029       -0.0819483362      -14.5495771434
 O       -13.5663762269       -0.0163437622      -15.4480808638
 C       -13.2516099378        0.4176347070      -13.1015534228
 C       -12.4510902106        1.7912015406      -12.9495080939
 O       -11.2057423988        1.7117864149      -12.8014563760
 C       -13.1446773051        3.1210572290      -13.2258732948
 C       -13.4901489071        3.3145675484      -14.7613384458
 C       -13.1050687362        4.7007113412      -15.2260239672
 O       -12.0213469153        5.0941656953      -14.9006503090
 C       -13.9910524311        5.5228336860      -16.2459460678
 C       -14.4649428200        4.4970392701      -17.4886874601
 O       -15.1825764632        3.5811947964      -17.1417818682
 C       -14.3285222804        5.0669089421      -18.9331363397
 C       -14.3799156846        3.9259829762      -19.9499268368
 C       -14.6905917719        4.5537108651      -21.4002307839
 O       -14.8940115844        5.7162018064      -21.4749259839
 C       -14.8053657876        3.6288193438      -22.6743894616
 C       -13.5205878685        3.0024621748      -22.9490786185
 O       -12.7312912009        3.0107169705      -22.0632378967
 C       -13.1877989983        2.1943440290      -24.1809545320
 C       -15.6565977161        2.3675955642      -22.2740752973
 C       -15.4333372878        4.3791353006      -23.7915737380
 C       -15.3531255865        5.9464165778      -15.5439289211
 C       -13.0330146553        6.7042157922      -16.5664485006
 C       -14.8291071132        0.5357209765      -12.9999488502
 C       -12.7477247091       -0.6482636572      -11.9916777109
 C        -8.7056181164        2.3024882906      -17.6708652502
 C        -7.7669146601        0.0963633858      -17.0529513636
 C        -8.3117599491        7.2086996848      -14.6726840812
 C        -6.2933649561        6.5801862244      -13.4962647292
 C        -6.8010502051        6.3305743787       -7.5221589885
 C        -4.6539466881        6.1769561377       -8.8861995959
 C        -6.6525052191       -1.4234670065       -7.7035757894
 C        -5.1354276507       -0.3812500035       -5.9098498315
 C         1.7205074608       -2.8421364842      -10.0024550365
 C        -0.1018134881       -4.5379903394       -9.4055124654
 C         5.2526171344       -4.3371804917       -3.6441967227
 C         6.2901758709       -5.6352517827       -5.5529060583
 C         4.7150760810      -11.3367199616       -0.5880952040
 C         5.4384752377      -10.5325782595        1.7095245199
 C        11.3146298633       -7.0383520655       -1.2838291138
 C         9.5777787488       -6.3064281445       -2.9019759144
 C         9.8962758657      -10.8107990572       -8.0482913133
 C         7.9264146274       -9.2794624783       -8.0024747084
 H         6.6940512230      -12.2785979415       -8.1282261187
 H         6.9894554437      -13.2154267697       -6.6342777370
 H         8.2246217732      -12.9163217140       -7.6726145247
 H        11.5411367524       -9.1511414199       -6.5422250107
 H        11.1560345505      -10.4379636200       -5.4349813326
 H        11.6383838549       -7.5786725390       -4.6428176185
 H        12.3620859533       -8.8079431474       -3.8457969414
 H         9.8713333995       -8.7332711229        0.6567355280
 H         9.7675883565       -9.8428599953       -0.6553560796
 H         7.5200603193       -8.8866771773        1.1360099919
 H         8.2059183844      -10.4861989792        1.2313752261
 H         3.5998406149       -9.0409459930       -1.9380161112
 H         5.2210435257       -9.2006833907       -2.4452570647
 H         5.2820553439       -6.4159505474       -1.5546953021
 H         3.8158227764       -6.5383006685       -2.1914555925
 H         4.0077939034       -3.8997401517       -6.2243062987
 H         2.6621430709       -4.1175294342       -5.1279436247
 H         1.8015150390       -5.5878915949       -7.1819803607
 H         2.9984786105       -4.7478755400       -8.1849108990
 H        -1.8166411762       -3.0735309384       -7.7825917611
 H        -2.1851408949       -2.6210530505       -9.3953600267
 H        -2.6232992401       -0.1130849356       -8.4664876224
 H        -2.1730951704       -0.7764614072       -6.9381034609
 H        -3.5935024633        1.7674867600       -7.4408094945
 H        -5.0159492875        2.1602424767       -6.6287190001
 H        -4.7137920963        3.0515745305       -9.5433548305
 H        -3.9187271683        3.9180984025       -8.3710347000
 H        -8.3960051174        6.9112686847       -9.3129660822
 H        -9.0789149331        5.4404115845       -9.7834024129
 H        -7.5536906549        7.6928596874      -11.4313681099
 H        -9.1947584913        7.4466687742      -11.4056236582
 H        -6.4123218392        3.6338435406      -13.3852667785
 H        -5.5671952910        4.4881039458      -14.8023967437
 H        -5.6185486964        2.2060113139      -15.3752324897
 H        -6.4103439560        2.9192207260      -16.5479315835
 H        -9.9376849492       -1.2027383388      -16.3531301947
 H       -11.5215976620       -0.3734608297      -16.7949560680
 H       -10.4997223682       -0.8161163817      -14.0853255089
 H       -11.6245865404       -1.8224542533      -14.9717976855
 H       -12.4067390293        3.8074513575      -12.8551010021
 H       -14.0034300479        3.3692917919      -12.6225043082
 H       -14.5249137931        2.9842520616      -14.9158707345
 H       -12.8914068889        2.6073783767      -15.3605720168
 H       -13.5124726782        5.7136435749      -19.1377855305
 H       -15.1729644426        5.7490843191      -19.0082865566
 H       -15.1189593772        3.1731473647      -19.7363503312
 H       -13.4395329852        3.3421514956      -19.9359603710
 H       -14.0594167421        1.7246471056      -24.6696780929
 H       -12.4856926623        1.4613393218      -23.8533557458
 H       -12.7879089660        2.9530970583      -24.8478504907
 H       -16.6774790746        2.6742122662      -21.9742407569
 H       -15.2918915291        1.7373608669      -21.3906548517
 H       -15.7509673021        1.7189553022      -23.1880624029
 H       -15.2650927718        3.9162565042      -24.7813836965
 H       -15.1103829221        5.4893310452      -23.7787075242
 H       -16.5927465461        4.3515843488      -23.7130206600
 H       -15.8570083003        4.9887321686      -15.5930377444
 H       -15.8772047090        6.6655418891      -16.1616488379
 H       -15.0884416223        6.3175406255      -14.5420450599
 H       -13.0757430353        7.4548369741      -15.8149322300
 H       -13.1357258357        7.2207488207      -17.5316464424
 H       -11.9629422936        6.3704096277      -16.6437388409
 H       -15.2041760290        1.3190278184      -13.6783185159
 H       -15.1657583699        0.6984985605      -11.9587798866
 H       -15.1038138297       -0.5140700784      -13.2935780820
 H       -12.9453544002       -0.4330850550      -10.9325605994
 H       -11.6893946190       -0.8552303111      -12.0802369015
 H       -13.1549185556       -1.6829746581      -12.2427930116
 H        -9.3001361666        1.8610407372      -18.5244260257
 H        -7.7901727753        2.6100314057      -18.0431711337
 H        -9.2028826656        3.2347480692      -17.4237140565
 H        -6.8166108248        0.5158925442      -17.3431823950
 H        -8.2074949934       -0.4242660446      -17.8951393978
 H        -7.5707691996       -0.5939780698      -16.2518273641
 H        -9.4060872311        7.0081102344      -14.7865135461
 H        -7.8451142891        7.1090046361      -15.6406884101
 H        -8.2551946091        8.1592922077      -14.2541286646
 H        -6.1398935540        7.6026516999      -13.1124332101
 H        -5.5636751158        6.4936115181      -14.3024436333
 H        -5.9185093044        5.8943405985      -12.6682841921
 H        -7.7757027867        5.9019305155       -7.3047933117
 H        -6.9555265534        7.3617977911       -7.8419875691
 H        -6.1968090407        6.2252110437       -6.6037329743
 H        -4.3474891160        5.6472208213       -9.8097162542
 H        -3.9302614728        5.9858112481       -8.0662186990
 H        -4.5024276940        7.1895636571       -9.0876033510
 H        -7.1823187295       -1.5283863718       -6.7915643998
 H        -6.4315628381       -2.4702841599       -8.0807942761
 H        -7.3186654142       -0.9094942573       -8.3866163407
 H        -5.7665212861        0.3355947926       -5.6880030794
 H        -4.1190901205       -0.1093351639       -5.7593955728
 H        -5.3257232544       -1.2712532452       -5.3541968351
 H         1.1428342024       -2.5224544820      -10.8416824200
 H         2.3744045010       -3.7402402562      -10.2764094631
 H         2.4072726566       -2.0632088980       -9.6417097889
 H         0.5537674914       -5.4065436494       -9.5275258850
 H        -0.4932064752       -4.3871680870      -10.4301982037
 H        -0.8761571918       -4.9394506171       -8.7296831518
 H         6.1621912616       -4.3619036462       -3.0334292798
 H         4.3479893610       -4.1418114894       -3.0220479687
 H         5.4195226930       -3.4479048583       -4.2751724869
 H         6.5466979744       -4.7047544169       -6.0220354733
 H         6.0228858463       -6.4979966894       -6.1989586905
 H         7.3218434951       -5.8370498649       -5.1441822832
 H         5.1162233117      -11.6707103089       -1.4631228210
 H         3.7476448107      -10.9565845949       -0.8586702946
 H         4.4386702314      -12.2632157131        0.0188511905
 H         6.0098471582       -9.7467217487        2.2909048905
 H         5.7584214528      -11.5715913845        1.8567321119
 H         4.3285182538      -10.4908711701        1.8405147182
 H        12.1753167237       -6.6389154929       -1.8030177035
 H        11.6813611202       -7.9094861951       -0.7857193774
 H        10.9035498668       -6.3062584206       -0.5419755625
 H         8.8808044383       -5.6404565507       -2.3922625734
 H         9.2424589632       -6.6311083521       -3.9143013930
 H        10.4266095889       -5.6939267131       -3.0419840908
 H         9.3265128673      -11.4801718038       -8.7006496545
 H        10.6005779040      -11.4906756489       -7.5478320083
 H        10.5913764072      -10.1963484844       -8.6103828102
 H         8.5423035392       -8.6730080826       -8.6583571812
 H         7.4039397892       -8.6555391112       -7.3091314748
 H         7.2983157024       -9.8648717672       -8.5863066314
 Na        7.5732293500       -9.7065528976       -3.6595831829
 Na      -10.3286034866        3.5630617955      -14.0885715570
