232

 C         7.4279888455      -12.4216968852       -7.1285559296
 C         8.0483138467      -11.3135893179       -6.3578860056
 O         7.7445490802      -11.2890747172       -5.1771093231
 C         8.8177298363      -10.1666539561       -7.1175863062
 C         9.4187683730       -9.2592969913       -6.0666175306
 O         8.7237967937       -8.4569401538       -5.4672750470
 C        10.8498246920       -9.3716433237       -5.5836106895
 C        11.3142316850       -8.3931500670       -4.5343262123
 C        10.6331197911       -8.7524943361       -3.1364449034
 O        10.0023566998       -9.7940328175       -2.9285792518
 C        10.2666678038       -7.5326361847       -2.1111036474
 C         9.0462267433       -8.1158866131       -1.3408698730
 O         7.8747454258       -7.7777148497       -1.4467923362
 C         9.4187859844       -9.1778273099       -0.2108074771
 C         8.1346193194       -9.5974818382        0.4500397494
 C         7.1304812548      -10.3402513034       -0.4524709455
 O         7.3550477407      -10.7032257082       -1.5662709634
 C         5.5506718620      -10.3180818724        0.0579105874
 C         5.0040795677       -8.7795035941       -0.3280511789
 O         4.7606717235       -7.9954603811        0.6009889080
 C         4.6544040556       -8.5417406589       -1.7400705565
 C         4.7753638798       -7.1100289163       -2.2317373443
 C         5.4160771855       -6.9744464051       -3.6227253208
 O         6.2013896876       -7.8403443733       -4.0128292515
 C         5.2436118253       -5.7714589320       -4.5392261441
 C         3.7805123963       -5.9399081843       -5.2897754443
 O         3.2145128421       -6.9767538442       -5.3234210798
 C         3.2283585963       -4.5444336172       -5.9875593805
 C         2.4453613329       -4.7404554387       -7.3033845410
 C         1.5002785278       -3.5020919614       -7.5226064687
 O         1.3742782058       -2.6670392052       -6.6838212078
 C         0.6591444360       -3.1829629444       -8.8594864731
 C        -0.2876674409       -1.8657284383       -8.6340327298
 O         0.1854182787       -0.7538339007       -8.5205064517
 C        -1.8112017713       -2.2978186952       -8.3934455866
 C        -2.6879782019       -1.1471742404       -7.9607621406
 C        -4.1135044484       -1.6710806044       -7.9905025496
 O        -4.3933752245       -2.8377822778       -8.1127960933
 C        -5.2689693135       -0.6277957186       -7.4943674191
 C        -5.0803472040        0.6153900362       -8.3949883545
 O        -5.1812642514        0.4769788171       -9.5741344380
 C        -4.6537467978        1.8995692832       -7.7175550654
 C        -4.7558373244        3.2942256350       -8.3717011812
 C        -6.0467784226        4.0832056814       -8.0164254258
 O        -7.0189814616        3.5811947653       -7.5068942689
 C        -6.0885339282        5.4987834687       -8.5170478458
 C        -6.8327849756        5.4729952558       -9.9538216399
 O        -6.3853641662        4.9647074972      -10.9759037274
 C        -8.1730193952        6.2159470134       -9.9633473171
 C        -8.2711616479        6.9850490654      -11.2860044437
 C        -8.6737031959        5.9597601520      -12.4994124421
 O        -9.4155647032        5.0352151253      -12.3742673983
 C        -7.6461513891        6.1536077463      -13.8568546968
 C        -7.6204047859        4.8137540463      -14.7003096949
 O        -8.4809866267        4.6616013195      -15.5358553081
 C        -6.4252277562        3.8217475870      -14.5291082534
 C        -6.5400191158        2.5359340149      -15.4301203443
 C        -7.9125072134        1.8869507943      -15.1482283436
 O        -8.3348127448        1.8411674889      -13.9808376886
 C        -8.5958518344        1.2391453521      -16.4159139326
 C       -10.0886230896        0.9107365156      -15.9443401252
 O       -10.6917838047        1.8131050899      -15.4459363632
 C       -10.7050020208       -0.5094456655      -16.1158154930
 C       -11.4906143556       -0.7311559359      -14.7494698632
 C       -12.8870638605       -0.0893395757      -14.6346456844
 O       -13.6448419609        0.0887641830      -15.5608600255
 C       -13.2063830989        0.3903058625      -13.1416371028
 C       -12.4349571144        1.7387433786      -12.9841077861
 O       -11.2212583763        1.7607606305      -12.8199354814
 C       -13.2040692472        3.0658886359      -13.1856701580
 C       -13.4339245239        3.1905537098      -14.7371301833
 C       -13.1014777751        4.6674784917      -15.1951379391
 O       -12.0766899476        5.2344893558      -14.8125937720
 C       -13.9813444952        5.4660329318      -16.2115278032
 C       -14.4761701119        4.6876178327      -17.4904549441
 O       -15.2088317637        3.7548167211      -17.1942095428
 C       -14.3233503846        5.0061765722      -18.9070427607
 C       -14.3807968507        3.9643352974      -20.0161495946
 C       -14.8188608454        4.5488603029      -21.4001328635
 O       -14.8679226780        5.7462384019      -21.5944050874
 C       -14.9368278143        3.5676031795      -22.5742599564
 C       -13.4137531233        3.0002978426      -22.9036624030
 O       -12.5400500862        2.8807565389      -21.9970888708
 C       -13.2906921166        2.4194304303      -24.3530738304
 C       -15.6847778515        2.2610084733      -22.2033444343
 C       -15.6667393392        4.2876290631      -23.8440013447
 C       -15.3047256270        5.9892634918      -15.5558525019
 C       -13.2442740168        6.7130930809      -16.7140571740
 C       -14.7116685754        0.5100732949      -13.0180185590
 C       -12.6850970590       -0.5389454550      -12.0690351947
 C        -8.7503720657        2.2560340310      -17.5356279336
 C        -7.8134128484       -0.0229226612      -16.9934002515
 C        -8.2692653633        7.2094937475      -14.9443245532
 C        -6.2509033492        6.6417400004      -13.4684679283
 C        -6.7969354558        6.4915539299       -7.4997851913
 C        -4.7238419663        6.0798558314       -8.7885801015
 C        -6.6457854856       -1.2905424356       -7.7597387515
 C        -5.1047260701       -0.4153133206       -5.9350495279
 C         1.7055696439       -2.8766729149       -9.9090048418
 C        -0.1765942654       -4.4310353891       -9.3436615394
 C         5.2885228803       -4.4537722619       -3.6021088299
 C         6.3651853002       -5.6141998893       -5.6085528991
 C         4.7463814426      -11.3706877959       -0.6710714827
 C         5.5080840217      -10.6256844539        1.5672818313
 C        11.4906242587       -7.0545439691       -1.3380975389
 C         9.6478950128       -6.2932745807       -2.8747729785
 C         9.8895846414      -10.7448511694       -8.0388718127
 C         7.9455589602       -9.1530998654       -7.9236132631
 H         6.6127406998      -12.0236978415       -7.7294329994
 H         6.9629171410      -13.2398155871       -6.5222240332
 H         7.9766338194      -13.0565711641       -7.8944110489
 H        11.3650811618       -9.2516367168       -6.5591385860
 H        10.8883904803      -10.3758588725       -5.2610981261
 H        11.0225729613       -7.3303325312       -4.7873300814
 H        12.3717061638       -8.2937632157       -4.5130759222
 H        10.0414878486       -8.7939280398        0.5587387821
 H         9.9044976205      -10.0348979545       -0.6716829961
 H         7.6327809638       -8.7039889520        0.8709107982
 H         8.2715390437      -10.2883448993        1.2434309783
 H         3.6180081002       -8.9422531303       -1.8763333801
 H         5.2098606668       -9.1603367633       -2.4588335981
 H         5.2110983415       -6.4004182012       -1.5652202450
 H         3.7427482700       -6.6031159799       -2.1729175237
 H         4.0361869150       -3.8139982781       -6.1521936284
 H         2.6550103188       -4.1397169364       -5.1571630816
 H         1.8391373960       -5.6793196773       -7.0904586467
 H         3.1522861632       -4.9842414751       -8.1230999432
 H        -1.7565444689       -3.1120289211       -7.7636652183
 H        -2.2531121180       -2.6721558705       -9.2639490226
 H        -2.5085587433       -0.3346548300       -8.6971666079
 H        -2.3758355004       -0.6691100848       -6.9794236386
 H        -3.7692876600        1.7909809752       -7.1919084849
 H        -5.3026329706        2.0859515926       -6.8642555236
 H        -4.6000398759        3.2735774200       -9.4591930906
 H        -3.8582717811        3.9061662660       -8.0796677707
 H        -8.3958254968        7.0328382969       -9.1665524304
 H        -8.9917278357        5.4905219400       -9.6839217571
 H        -7.3524876516        7.4287830935      -11.4893037220
 H        -8.9816333863        7.7945645619      -11.4196776613
 H        -6.4747804885        3.5520615251      -13.4537193726
 H        -5.5446691196        4.4154198793      -14.8303027285
 H        -5.6657148537        1.9514430541      -15.2390231551
 H        -6.3893088734        2.6864493727      -16.4736416708
 H        -9.8527520876       -1.2364967253      -16.2091130467
 H       -11.3986240475       -0.4798042875      -16.9593886854
 H       -10.8442168493       -0.2669535364      -14.1423777420
 H       -11.4755338596       -1.7756840585      -14.5023850237
 H       -12.5877713685        3.8080805197      -12.6618964600
 H       -14.2017199814        3.2894445334      -12.7178860803
 H       -14.4307755805        2.7629225568      -14.8484202665
 H       -12.7991548932        2.5697824881      -15.3035944741
 H       -13.3983951046        5.6342237660      -18.9546070679
 H       -15.1177749754        5.7163503986      -19.1667999892
 H       -15.1396172224        3.2389096440      -19.7949343421
 H       -13.5374311285        3.3118632368      -20.1591435129
 H       -14.2435834080        2.0058521724      -24.5494023584
 H       -12.5305274424        1.5790439303      -24.3937385038
 H       -13.1581162130        3.2849577343      -25.1012832242
 H       -16.6720436967        2.4758337672      -21.8051026217
 H       -15.2017337508        1.6042494025      -21.4199931078
 H       -15.8523777005        1.6929677595      -23.1230257047
 H       -15.6022570638        3.7132799047      -24.8505273541
 H       -15.2400136137        5.2457885013      -23.9261413651
 H       -16.7399872189        4.4094756077      -23.7392460441
 H       -15.7740546397        5.0530269434      -15.1267242765
 H       -15.8899806840        6.2611721997      -16.3949641391
 H       -15.0264811765        6.8390267546      -14.8915289720
 H       -13.0169189594        7.4339820078      -15.9359834935
 H       -13.8496107211        7.2406346701      -17.4883207600
 H       -12.3444421256        6.5371319620      -17.3037927646
 H       -14.8956733566        1.4071356898      -13.6333875493
 H       -15.0433822657        0.7218443132      -11.9747193547
 H       -15.1466557833       -0.3756591807      -13.3905066127
 H       -12.7592414822       -0.1196160006      -11.1287516023
 H       -11.6452865018       -0.9436561479      -12.1293314652
 H       -13.2759123070       -1.4494045792      -12.1456850349
 H        -9.5324369991        1.9656795079      -18.2412118575
 H        -7.8635398806        2.4629232902      -18.0942915300
 H        -9.0157903524        3.1738449040      -17.1659077657
 H        -6.8038324734        0.1192649313      -17.3157880925
 H        -8.4019542560       -0.2954825204      -17.8172109450
 H        -7.8564526354       -0.8871823854      -16.2868765883
 H        -9.2032904096        6.8662464971      -15.3928648285
 H        -7.5784642651        7.3944420941      -15.7262394814
 H        -8.6089503663        8.0380721135      -14.3932109294
 H        -6.2266748873        7.4979096830      -12.8293812411
 H        -5.5774234909        6.9044360015      -14.2683169159
 H        -5.7199798192        5.8650374196      -12.8870555659
 H        -7.8828774365        6.2275261829       -7.2504710213
 H        -6.7501661504        7.4665972339       -7.8563177709
 H        -6.2183464399        6.3513443571       -6.5630692932
 H        -4.1676706245        5.6525095907       -9.5529974951
 H        -4.1492629646        6.0582882363       -7.8333987705
 H        -4.7164856507        7.1772140870       -8.9798406232
 H        -7.3212517821       -1.2479307694       -6.9261666427
 H        -6.4428517255       -2.3525654736       -8.0232869162
 H        -7.1461591994       -0.7872437620       -8.6490366015
 H        -5.7662336455        0.4430757555       -5.6070605897
 H        -4.0940890626       -0.2447050137       -5.7430696799
 H        -5.3521331579       -1.3156346804       -5.3815805851
 H         1.2575915264       -2.6455233379      -10.8804650055
 H         2.2976366378       -3.8409494737       -9.9560863530
 H         2.3974913584       -2.0908308624       -9.6062746764
 H         0.3452581919       -5.3891061259       -9.4085885889
 H        -0.5658545704       -4.2668810646      -10.2841405877
 H        -0.9836201143       -4.7149714479       -8.6363537505
 H         6.2156919388       -4.4298863970       -3.0423939110
 H         4.3837879696       -4.2929164370       -2.9285455671
 H         5.3742187592       -3.6153491457       -4.2016427942
 H         6.1690731962       -4.7736146865       -6.3116402750
 H         6.6310399100       -6.5722730237       -6.0747249426
 H         7.2860065355       -5.1105238384       -5.2030145355
 H         5.1814671741      -11.9471671088       -1.5256251098
 H         3.7756198972      -11.0814476438       -1.0533449062
 H         4.4570846144      -12.0856356212        0.0934965184
 H         6.1489229256       -9.8856033976        2.0225888708
 H         5.8355258342      -11.6768527855        1.7639624291
 H         4.4724347160      -10.4976214370        1.7890893644
 H        12.1207323187       -6.4277724610       -1.9531514725
 H        12.1899831383       -7.9112804420       -1.1220178708
 H        11.1659805138       -6.4976677010       -0.4712433054
 H         9.3045900983       -5.5324199898       -2.2173783785
 H         8.9002853302       -6.7148197719       -3.5286366579
 H        10.3788898785       -5.7852792691       -3.4777913958
 H         9.4797447129      -11.5021953874       -8.6749932070
 H        10.7125608467      -11.2608591573       -7.5134253535
 H        10.4256494519      -10.0319841909       -8.6015189648
 H         8.6107847396       -8.3880844523       -8.2652518482
 H         7.2239578022       -8.7575493725       -7.2209559851
 H         7.5211014431       -9.5995409947       -8.7923758755
 Na        7.5281822135       -9.6098465971       -3.4863523603
 Na      -10.3067181575        3.6563962276      -14.0774433342
