232

 C         7.5204262782      -12.4504170559       -7.1717400192
 C         8.1103303090      -11.4058256970       -6.1969654227
 O         7.8187000006      -11.3532522786       -5.0592458373
 C         8.8256957139      -10.0776326991       -7.1022282430
 C         9.4412402662       -9.1927566119       -6.0428093325
 O         8.6720530210       -8.5105041995       -5.3169899212
 C        10.9367822595       -9.2780586181       -5.8086682185
 C        11.4173695994       -8.3322274218       -4.6640987852
 C        10.6102946462       -8.5284097035       -3.3990195650
 O        10.2581730229       -9.6737890317       -3.1497055244
 C        10.4057625348       -7.4831818881       -2.2461027448
 C         9.1753902476       -8.0629938439       -1.2785110551
 O         8.0280885574       -7.5896948389       -1.2857640124
 C         9.5923526888       -9.1185488602       -0.2455433283
 C         8.3332109484       -9.6261661598        0.4544789197
 C         7.2828288484      -10.2434979887       -0.4289734477
 O         7.6561613036      -10.6341921061       -1.5321100586
 C         5.8297830858      -10.3679250128       -0.0260439526
 C         4.9494388563       -8.9447011910       -0.4431034095
 O         4.6970600979       -8.0771582226        0.4052314544
 C         4.5848924260       -8.7102471649       -1.8714097328
 C         4.9898012034       -7.2511087303       -2.3372660387
 C         5.3956842290       -7.1421176596       -3.7268144198
 O         5.9902083581       -8.0297243731       -4.3341072158
 C         5.0767598158       -5.8580264148       -4.5052362758
 C         3.6878148304       -5.9199166571       -5.2112409877
 O         2.9423690901       -6.7958199840       -4.9557005655
 C         3.3848300323       -4.6858300087       -6.0269563736
 C         2.3762127072       -4.8501433907       -7.1104898897
 C         1.5596886886       -3.5429143746       -7.2822577914
 O         1.3139502043       -2.8734731700       -6.3239178503
 C         0.8995215641       -3.2453079741       -8.6317736025
 C        -0.1625418875       -2.0740618103       -8.4402128545
 O         0.2196237325       -0.9282528664       -8.5200061569
 C        -1.6606758296       -2.4130561705       -8.1584654904
 C        -2.6302994772       -1.2262453645       -8.2327835267
 C        -4.1052489759       -1.7280211635       -8.1454382581
 O        -4.4522694523       -2.8837576729       -8.0538226785
 C        -5.2879222611       -0.7114879794       -7.5791592493
 C        -5.2109697752        0.7425029370       -8.2416532475
 O        -5.3388157310        0.7752022567       -9.4609692175
 C        -4.9114673455        1.9613434238       -7.3843532690
 C        -4.9473440768        3.2805168952       -8.2386126451
 C        -6.1208899601        4.1050075990       -8.0176570076
 O        -7.0840083587        3.6833675061       -7.4527526615
 C        -6.2090422058        5.6493641932       -8.5353210355
 C        -6.9719226602        5.5498223288       -9.8831298664
 O        -6.4758505127        4.9838893451      -10.8635891495
 C        -8.2235887166        6.3384482644      -10.0717645817
 C        -8.3345062537        6.9098697050      -11.5105328666
 C        -8.3315862988        5.9192099484      -12.6871276932
 O        -9.1543740021        5.0678211403      -12.6948391708
 C        -7.4857712417        6.2803059441      -13.9624094352
 C        -7.4004371599        4.8163375089      -14.6935392781
 O        -8.2506678588        4.5356333404      -15.4192417098
 C        -6.3731209277        3.8008327356      -14.3911301150
 C        -6.6286818682        2.4674258930      -15.1593896795
 C        -8.1304396745        2.0292647831      -15.0919698792
 O        -8.5612842058        2.0995375031      -13.9309798014
 C        -8.8280028512        1.2327509582      -16.3259562197
 C       -10.2552446356        1.0254864867      -15.9614669302
 O       -10.9781905170        1.9738800988      -15.7261241380
 C       -10.8883404687       -0.4145923273      -16.1361201626
 C       -11.5953437572       -0.9466144490      -14.8622642905
 C       -12.8614527042       -0.0776073023      -14.5722503237
 O       -13.5335408945        0.2617245295      -15.5068897002
 C       -13.2713642192        0.4166494989      -13.1321798359
 C       -12.6778843405        1.8990411400      -13.1691585169
 O       -11.4720755045        2.0211316738      -12.9334673531
 C       -13.4210572843        3.1929122603      -13.4461331168
 C       -13.5768551131        3.4122046694      -14.9541743905
 C       -13.1616766466        4.7959316848      -15.3937248167
 O       -12.1096382899        5.2410606117      -15.0678877722
 C       -14.1019081380        5.6840942867      -16.3113428812
 C       -14.5399941654        4.7811610384      -17.5617466614
 O       -15.1746428110        3.7937663072      -17.1361110002
 C       -14.1095623627        5.0683657431      -19.0003237364
 C       -14.6912095989        4.0060874985      -19.9659608609
 C       -14.8747386770        4.3818631561      -21.4083033204
 O       -14.8083159999        5.5498146450      -21.6293215417
 C       -15.0281455725        3.3171289446      -22.5456379884
 C       -13.5653829296        2.9986591600      -23.0848425067
 O       -12.6908170385        2.6235560768      -22.2842961001
 C       -13.2746581848        3.0637411607      -24.5654679561
 C       -15.6011333607        2.1364641582      -21.7981890100
 C       -15.9868576153        3.9597095086      -23.6523593153
 C       -15.3304329630        6.0528138987      -15.2747565748
 C       -13.3696423770        6.9269526838      -16.6233958845
 C       -14.8055474483        0.4907661278      -13.0478657009
 C       -12.6994542532       -0.4527243567      -11.9953154618
 C        -8.6068714829        2.0800047755      -17.5936695210
 C        -7.9493268265       -0.0204802352      -16.4217038714
 C        -8.3794892489        7.3094502336      -14.7260241472
 C        -6.0600510095        6.7476239039      -13.6260757674
 C        -6.8154164057        6.3710546796       -7.3024484669
 C        -4.7767894456        6.1650224135       -8.8602129170
 C        -6.6332573256       -1.3596247960       -7.9672443051
 C        -5.0718233532       -0.8804957991       -6.0181182722
 C         1.9143811074       -2.7822078668       -9.6936382184
 C         0.3196839308       -4.6422223441       -9.0985682811
 C         5.1052554797       -4.5862089974       -3.6761126006
 C         6.1450393732       -5.6592588202       -5.6540631548
 C         5.2008453863      -11.4605044847       -0.8912950850
 C         5.4846411873      -10.6683465922        1.4750256951
 C        11.9047083844       -7.4655923373       -1.6181618485
 C        10.0576701224       -6.0895181363       -2.6313930919
 C         9.8329060195      -10.6588692597       -8.0803388042
 C         7.5649125156       -9.4565658557       -7.8421346880
 H         6.6015990004      -12.2337492206       -7.6623281757
 H         7.1844802461      -13.3538312513       -6.7016483357
 H         8.1876337995      -12.7808956220       -7.9552891126
 H        11.3938013121       -8.8805720222       -6.7336960546
 H        11.2265481028      -10.3198598291       -5.6894356253
 H        11.3890208937       -7.3041064225       -4.9138380027
 H        12.4855472725       -8.4587945989       -4.5028740765
 H        10.2545357164       -8.6741390197        0.5023912147
 H        10.0692810208      -10.0013618187       -0.6421695134
 H         7.8321047965       -8.7792510716        0.9763110827
 H         8.6116702172      -10.3400017503        1.1881761143
 H         3.5398593290       -8.8435348680       -2.0456309857
 H         5.1077313144       -9.4476264293       -2.5162894010
 H         5.6089745398       -6.8005475573       -1.5805822477
 H         4.1430417375       -6.5527429354       -2.1134202869
 H         4.2646437985       -4.2745788728       -6.4501170027
 H         3.0274050382       -3.8546810330       -5.3301963098
 H         1.7370857890       -5.6586817624       -6.9607385084
 H         2.8663952234       -4.9940891854       -8.0892217157
 H        -1.6783698161       -2.8554124184       -7.1207523667
 H        -1.9965129773       -3.2843487114       -8.6776700469
 H        -2.5243599921       -0.5915291577       -9.1075007326
 H        -2.4320882224       -0.5197773679       -7.4038855067
 H        -4.0870077081        1.9313365301       -6.7240208775
 H        -5.7297705921        2.0499458182       -6.5234698600
 H        -5.0473062049        2.9319026549       -9.2720427098
 H        -4.0393047935        3.8470569097       -8.2971864317
 H        -8.2857730580        7.2003291672       -9.4111052833
 H        -9.1722007708        5.8520233085       -9.8407150356
 H        -7.5821954203        7.6094475116      -11.8027149340
 H        -9.2806226339        7.3852831405      -11.6423180677
 H        -6.5457085257        3.5815072311      -13.2852323158
 H        -5.4919346189        4.2774223073      -14.6400383401
 H        -6.2064694995        1.5620809466      -14.6503371984
 H        -6.1576233953        2.5033228241      -16.1976231900
 H       -10.1990869759       -1.1471261147      -16.4617015701
 H       -11.7566301578       -0.2770126795      -16.8178798620
 H       -10.7919294526       -1.1333704413      -14.1528158096
 H       -11.8680067844       -1.9865680483      -15.2377983241
 H       -12.8287897745        4.0089484933      -13.0960539266
 H       -14.2597603030        3.2696546398      -12.7867575960
 H       -14.6742055721        3.3227673113      -15.2011792404
 H       -13.0611979722        2.6089627127      -15.5376645340
 H       -13.0436143138        5.1229380593      -18.9276682803
 H       -14.4583903805        6.0835047825      -19.1472291509
 H       -15.6765603159        3.7102979566      -19.6125822014
 H       -14.2285320128        3.0005757757      -19.8568618222
 H       -13.6933284030        2.2340617992      -25.0504773783
 H       -12.1980507882        3.0472845407      -24.6801815646
 H       -13.7651600086        3.9229524807      -25.0323032262
 H       -16.5579436439        2.4344919369      -21.3959094235
 H       -14.8636674127        1.8352596987      -20.9660946395
 H       -15.9059958361        1.2843776971      -22.4344409237
 H       -16.4669938107        3.3305912910      -24.5078430888
 H       -15.5055624718        4.7953064734      -24.1278051366
 H       -16.8875664632        4.3996721741      -23.1843622087
 H       -15.6328987003        5.1298192639      -14.8025449922
 H       -16.0801410878        6.5157834328      -15.8035058889
 H       -14.8296771963        6.6825862516      -14.5528189552
 H       -13.0630751006        7.4139661287      -15.7559948880
 H       -13.9942093888        7.5806478600      -17.2442973287
 H       -12.5097246565        6.8092076389      -17.2909819034
 H       -15.2357650257        0.6905439034      -14.0376553103
 H       -15.0188266677        1.2917773663      -12.3369182778
 H       -15.1552385240       -0.4429777206      -12.6447473206
 H       -13.3297675706       -0.2450551917      -11.1615118119
 H       -11.7211676012       -0.0896488488      -11.5714487756
 H       -12.6407026834       -1.5669842921      -12.2486871460
 H        -8.8697226651        1.4474984682      -18.5503258313
 H        -7.5783826439        2.3888557256      -17.7738927383
 H        -9.1807509949        2.9901961505      -17.6207093406
 H        -6.8925754882        0.2455578941      -16.5448905732
 H        -8.1912465052       -0.7262768516      -17.2114672865
 H        -7.9991447059       -0.5118684603      -15.4174556124
 H        -9.3457538296        6.7902500374      -15.0946628963
 H        -7.8641792436        7.5824014860      -15.6666119205
 H        -8.6980750855        8.1196297366      -14.1253032022
 H        -5.9698299417        7.8245660407      -13.5568771459
 H        -5.4114201634        6.4690691427      -14.4528124524
 H        -5.5561932232        6.3098059333      -12.7079526774
 H        -7.7572538082        5.9008441482       -6.9521042959
 H        -7.0391669649        7.3610583008       -7.5776604669
 H        -6.0408376139        6.4151711045       -6.5274111090
 H        -4.3473828273        5.6334327954       -9.6895187857
 H        -3.9834164188        6.0035036694       -8.0623002120
 H        -4.7760661692        7.2275966014       -9.0622667996
 H        -7.2841201763       -0.6898178317       -8.3756895885
 H        -7.1010381051       -1.9227305078       -7.1426885618
 H        -6.4355469936       -2.1492720988       -8.7104346270
 H        -5.8672378680       -0.3767527941       -5.4779108306
 H        -4.1361290683       -0.5210468769       -5.6934383133
 H        -5.1088832138       -1.9574270194       -5.8096605914
 H         1.4916469891       -2.8078044254      -10.6692188655
 H         2.7568439764       -3.5288445440       -9.7965600074
 H         2.1739622152       -1.7693741508       -9.4865408225
 H         1.1207342284       -5.3750119871       -9.3160824400
 H        -0.3920124082       -4.6976678460       -9.9175391898
 H        -0.2419187023       -5.1930684210       -8.2834122855
 H         5.9952310932       -4.4232155571       -3.0512333724
 H         4.2153642274       -4.5282290515       -2.9335571507
 H         5.0178245626       -3.7185179846       -4.2802757802
 H         5.7728598891       -5.8947412239       -6.6205226046
 H         6.9770263780       -6.3052432099       -5.5371874251
 H         6.5013685461       -4.6323719230       -5.7566456161
 H         5.3209015061      -11.2673168679       -1.9124291056
 H         4.1378956867      -11.5247036843       -0.7767586855
 H         5.5314021795      -12.5012858189       -0.6622259114
 H         5.7566162194       -9.7203935509        1.9810514013
 H         6.2708760694      -11.3878584386        1.7944692759
 H         4.4502068678      -10.9905469434        1.6618668004
 H        12.6833262470       -7.2172563408       -2.3014790083
 H        12.2096620538       -8.4307186891       -1.2546617583
 H        11.8918436288       -6.6801267032       -0.8540756594
 H         9.9929897392       -5.4571552843       -1.7120259404
 H         9.0444851404       -6.1440736927       -3.1635392236
 H        10.7364743152       -5.6455134839       -3.3501249462
 H         9.3106259466      -11.1366809194       -8.9248983681
 H        10.3955496123      -11.5193066809       -7.6214122591
 H        10.5678331115       -9.9655150251       -8.4990666895
 H         7.9218107276       -8.4909622802       -8.2841429013
 H         6.8357373733       -9.3028339621       -7.0254409812
 H         7.1795690225      -10.0473409745       -8.6468397655
 Na        7.8235539330       -9.4245667833       -3.4369866484
 Na      -10.4128949117        3.6334449997      -14.1749241523
