232

 C         8.3838355117      -12.6291202435       -6.6275869663
 C         8.2456003460      -11.2606890310       -6.1506884718
 O         7.7239892710      -11.1149561124       -5.0624829880
 C         8.6474250315      -10.0933839244       -7.0683554504
 C         9.3499188573       -8.9791715255       -6.1411255027
 O         8.7507544006       -8.0971767609       -5.5419057250
 C        10.8938057141       -9.1809397520       -6.0379790893
 C        11.4573544154       -8.2248144337       -4.9836189824
 C        10.8289452076       -8.5512430476       -3.5679711957
 O        10.2669660227       -9.6379479959       -3.4525954272
 C        10.9794903413       -7.6607464469       -2.2324801815
 C         9.5546190868       -7.9814286884       -1.5887851717
 O         8.4860210978       -7.8292747113       -2.1161488878
 C         9.6136099680       -8.6633039676       -0.2393406077
 C         8.2161300798       -9.0020071754        0.3965934390
 C         7.4201555592      -10.1359608417       -0.4898278181
 O         7.8327363604      -10.5579700915       -1.5282276193
 C         6.0001369876      -10.6745222533        0.0644435681
 C         5.2108573295       -9.3080579760       -0.4750624619
 O         5.1205872726       -8.3996494385        0.2860165525
 C         4.9759728967       -9.1775606743       -2.0303857229
 C         4.8564640363       -7.6425228714       -2.4642074628
 C         5.5123673913       -7.3726410181       -3.8422562664
 O         5.9260445407       -8.2750698833       -4.5830953031
 C         5.3999700913       -5.9406228786       -4.4641117883
 C         3.8970507899       -5.8964263949       -4.9159608355
 O         3.0911660809       -6.7569449205       -4.5854703198
 C         3.3292069488       -4.6540706467       -5.6773744641
 C         2.0184853126       -4.8770642686       -6.5015086487
 C         1.1984487163       -3.5751048095       -6.9568158291
 O         0.6528688114       -2.9255703998       -6.0618909111
 C         0.9062145000       -3.2449145729       -8.5116639079
 C        -0.3114386379       -2.0196475206       -8.5314769805
 O        -0.1100470769       -0.9463718339       -9.0764093219
 C        -1.6682263207       -2.4952276755       -8.0682275232
 C        -2.7419067958       -1.3864608822       -7.9169466340
 C        -4.2080071875       -1.7706066528       -8.1731702927
 O        -4.5643340126       -2.8660546309       -8.5410159575
 C        -5.3377484245       -0.8262901934       -7.6283029884
 C        -5.1622718592        0.5297779157       -8.2468125463
 O        -4.6462687358        0.5618574500       -9.3739666412
 C        -5.4617589597        1.7527122163       -7.4144158533
 C        -5.1667819775        3.0948650683       -8.2475107225
 C        -6.3210772874        4.1345747295       -7.9383610763
 O        -7.3407029739        3.7669003480       -7.3435114908
 C        -6.1832642108        5.5885165243       -8.4430251836
 C        -6.9452896818        5.6168250074       -9.9289439505
 O        -6.3313997959        5.0871923800      -10.8277822299
 C        -8.2243644873        6.4371430399      -10.1310891020
 C        -8.2357828508        7.0050999663      -11.5311176451
 C        -8.3478709003        5.9183370373      -12.5996122549
 O        -9.4538265819        5.2805891033      -12.6786492854
 C        -7.4652566127        6.1685284808      -13.9844276245
 C        -7.5585181370        4.8321979732      -14.6808956164
 O        -8.3796463763        4.6268310542      -15.6343713792
 C        -6.5828829290        3.8034847009      -14.0888411395
 C        -6.6204873011        2.4328501976      -14.9033130288
 C        -8.0556849494        1.9100283349      -14.9560350910
 O        -8.7807010403        1.9740057602      -14.0064408094
 C        -8.5298648030        0.9945585755      -16.1180047866
 C       -10.1710802634        1.0672227166      -16.1402367613
 O       -10.7783916882        2.1103119147      -16.0053973129
 C       -10.9416225524       -0.2650397689      -16.0922496080
 C       -11.5963962789       -0.5620064221      -14.7298901148
 C       -12.9190474188        0.2122309380      -14.5887630721
 O       -13.6933490262        0.2803429528      -15.5370344437
 C       -13.4373409972        0.7941521546      -13.2023019211
 C       -12.8728280330        2.2419881819      -13.1949888483
 O       -11.7001154348        2.3765844824      -12.9406109712
 C       -13.8275865526        3.3618512625      -13.4858857706
 C       -14.1407161226        3.4814055149      -15.0127583007
 C       -13.4133812647        4.6916878678      -15.6200355428
 O       -12.1961495356        4.9303282189      -15.4696344800
 C       -14.2991343253        5.7018957120      -16.3785445067
 C       -14.9113866151        4.9200514012      -17.5832301332
 O       -15.8562825469        4.2216796132      -17.4911481469
 C       -14.2068714393        5.0930863708      -18.9644317466
 C       -14.3703194076        3.8076082519      -19.8539015455
 C       -14.7671182165        4.2792203217      -21.3452223851
 O       -14.6871876929        5.4489242420      -21.6678495021
 C       -15.2586662383        3.2079107455      -22.3298956505
 C       -13.7357358250        3.0292437975      -23.1009616276
 O       -12.9074594000        2.2517890565      -22.7231733943
 C       -13.5404203015        4.0933419137      -24.1161158156
 C       -15.6900136571        1.9155889125      -21.6028357643
 C       -16.3777962988        3.5334134927      -23.3030616143
 C       -15.2634371211        6.2977591233      -15.4441491312
 C       -13.5739145616        6.9416210860      -16.8947977161
 C       -14.9872184323        0.7009039247      -13.0609043962
 C       -12.8793830059       -0.0829973660      -12.0175563552
 C        -8.1471674261        1.6739041875      -17.4670000558
 C        -8.0003943464       -0.4675255897      -16.0819540249
 C        -8.0930696101        7.2496901735      -14.8994001650
 C        -6.0312412644        6.7774926989      -13.6507352909
 C        -6.8181873778        6.4589573981       -7.3092624872
 C        -4.7496448534        6.0100307492       -8.6845069945
 C        -6.8028090637       -1.2480058959       -7.9917905127
 C        -5.1434299804       -0.9425999977       -6.1471913596
 C         2.2417703266       -2.7830287230       -9.2341881807
 C         0.3802778638       -4.5010693953       -9.2441622291
 C         5.6491035351       -4.8567286149       -3.3937494031
 C         6.3213678351       -5.7237866612       -5.5962999288
 C         5.5678065207      -11.9159059172       -0.6310546082
 C         5.9649722282      -10.9060111392        1.5874018735
 C        12.1740572578       -8.1519946223       -1.4333143528
 C        10.9364315994       -6.1384534546       -2.4461894319
 C         9.6831285246      -10.5204439979       -8.1637610817
 C         7.3989222427       -9.5043330664       -7.6170368089
 H         8.1172454769      -12.7227492264       -7.6496374280
 H         7.6142270075      -13.2638750913       -6.3024311953
 H         9.3774786409      -13.0445183180       -6.6073034634
 H        11.3348999419       -8.8969206935       -6.9841270584
 H        11.1478479748      -10.1478376296       -5.7162789521
 H        11.3269638223       -7.1654940667       -5.2723864691
 H        12.4791391661       -8.3482706252       -4.8514187381
 H        10.1304630543       -8.0315153249        0.4556325647
 H        10.2118962001       -9.5914149697       -0.2908472097
 H         7.6748156405       -8.0655506860        0.3254032388
 H         8.2625320329       -9.2166355220        1.4515714981
 H         3.9790319765       -9.6167866022       -2.1994183538
 H         5.6552180548       -9.6652325299       -2.6893488474
 H         5.1021727602       -7.0285185867       -1.5727889180
 H         3.7221943740       -7.4756455644       -2.5916190496
 H         4.0461482081       -4.2827391992       -6.4193058114
 H         3.3257987281       -3.8955572576       -4.8940028581
 H         1.2878848826       -5.5491538525       -6.0288877259
 H         2.2505558370       -5.3834017528       -7.3937395878
 H        -1.5755284605       -3.0095268051       -7.2058905947
 H        -2.0496338800       -3.2737634543       -8.7260268361
 H        -2.3360722297       -0.5179248886       -8.4614525610
 H        -2.8729214134       -1.0307093850       -6.8803221731
 H        -4.7471348739        1.7185738082       -6.5278695356
 H        -6.3970942299        1.8615852436       -6.8907912428
 H        -5.0470615570        2.8007022735       -9.2732453301
 H        -4.1680995057        3.4980115729       -7.9567337150
 H        -8.2714489633        7.3485312474       -9.4269540784
 H        -9.1152157342        5.7959422107       -9.9620497641
 H        -7.3975693650        7.6071312338      -11.7437567787
 H        -9.1010651716        7.5655458521      -11.7556606590
 H        -6.8386385416        3.5462642795      -13.0829791433
 H        -5.4546646216        4.0579110957      -14.1135194228
 H        -6.1872860071        1.7424804842      -14.1462392789
 H        -6.1277091706        2.4745278027      -15.8784680846
 H       -10.1955280548       -1.0894559520      -16.3065907639
 H       -11.6802725184       -0.2890028156      -16.8300829209
 H       -10.8287662052       -0.5106113071      -13.9661844179
 H       -11.7800517031       -1.6421097945      -14.7225733528
 H       -13.3307528887        4.2379282130      -13.1528874649
 H       -14.7975499052        3.3600312910      -13.0471638109
 H       -15.2623420933        3.5571083874      -15.0799986881
 H       -13.8228492106        2.5737706413      -15.5885506603
 H       -13.1853961279        5.3817378790      -18.7540795560
 H       -14.6723831264        5.8719115828      -19.5179448626
 H       -15.2146403768        3.1647848635      -19.5121370980
 H       -13.4704128079        3.1882809761      -19.9766667819
 H       -14.3348104799        4.0605736500      -24.8489818624
 H       -12.5958641668        4.0834642741      -24.6077630157
 H       -13.6182152639        5.0956826929      -23.7264442256
 H       -16.5661632695        2.1691789334      -20.9202815933
 H       -14.8380690097        1.4342568955      -21.1694862497
 H       -15.9266929926        1.1742734530      -22.4028726155
 H       -16.4561178696        2.7905450989      -24.0588410459
 H       -16.3004362883        4.4760723167      -23.9498568295
 H       -17.2837112978        3.7395642758      -22.7029371614
 H       -15.9202623737        5.5175146208      -15.1636378469
 H       -15.7753613187        7.0861650782      -16.0185169828
 H       -14.7262798889        6.7506045022      -14.6587331759
 H       -12.9168764737        7.4124607212      -16.1415314967
 H       -14.3256163588        7.6864110080      -17.1163586489
 H       -12.9440715854        6.8030458755      -17.7295161727
 H       -15.3617448178        1.3629276616      -13.8201445305
 H       -15.2284599646        1.1139129412      -12.0831874628
 H       -15.4632494033       -0.2391721585      -13.2106079200
 H       -13.5218314588        0.3077139191      -11.1531246854
 H       -11.7904775459        0.1789117315      -11.8859613617
 H       -13.0957404555       -1.1492742191      -12.0519915397
 H        -8.8266703880        1.4901646047      -18.2467770703
 H        -7.1332892591        1.2977208659      -17.8526387403
 H        -8.0879793925        2.8168352266      -17.3491590481
 H        -6.8992392087       -0.4500363280      -16.1712265859
 H        -8.2929319317       -0.9179525655      -17.0466022815
 H        -8.2790343039       -1.1643964344      -15.2637317087
 H        -8.9632057826        6.9173955729      -15.3812175713
 H        -7.3782511118        7.5864826042      -15.6768805603
 H        -8.2556327495        8.2592518116      -14.3582723842
 H        -6.1107493240        7.8672822524      -13.5922087709
 H        -5.2685840563        6.5418216842      -14.4060668625
 H        -5.6977824195        6.4159693337      -12.7179806194
 H        -7.7530379348        6.0022009972       -7.0341208070
 H        -6.9860241087        7.5235867845       -7.5057662187
 H        -6.1785180530        6.4126372474       -6.4433897629
 H        -4.1658295509        5.5435911562       -9.4835671218
 H        -4.1608206483        5.7854930231       -7.8237023281
 H        -4.6702555402        7.1036973070       -8.9721033419
 H        -6.7205561670       -2.2629121104       -8.4978483774
 H        -7.3414491703       -0.6328536199       -8.6323791602
 H        -7.3574481542       -1.3608095038       -7.0898010387
 H        -5.9343709308       -0.5524239338       -5.5148312564
 H        -4.2858327811       -0.3677200917       -5.8318344195
 H        -5.0343389549       -1.9580910323       -5.8755702243
 H         2.0674665692       -2.3025912013      -10.2198724964
 H         2.8285295063       -3.6504668266       -9.4253535787
 H         2.7375971896       -2.0565657906       -8.5717686563
 H         1.1467511648       -5.2840249268       -9.4343804189
 H         0.0091306490       -4.3033238743      -10.2482199274
 H        -0.4792198717       -5.0336192364       -8.8392160483
 H         6.6589149558       -4.9066700654       -2.9324236066
 H         5.0175019989       -4.9017265826       -2.5451175057
 H         5.5090810309       -3.8089328377       -3.7574850888
 H         6.4027094571       -6.5761090001       -6.2299603996
 H         7.2952707539       -5.5137439062       -5.2806824784
 H         6.1042330662       -4.8318756340       -6.0693031664
 H         5.7040539254      -11.9862487466       -1.7515083092
 H         4.4989706755      -12.0152826959       -0.4306147673
 H         6.0069588600      -12.7539760333       -0.2174810978
 H         6.2242552175      -10.0185314421        2.1814584216
 H         6.6637125797      -11.7479201880        1.7884727542
 H         4.9603636124      -11.2517457057        1.8929795293
 H        13.0884205445       -7.8574868449       -1.9267163729
 H        12.0637555047       -9.1998293736       -1.0867450531
 H        12.2118452896       -7.6121858751       -0.5182600195
 H        11.1450916721       -5.5972323290       -1.5114132561
 H         9.9598201189       -5.8382023084       -2.7602096825
 H        11.7116506959       -5.8700437471       -3.2296314327
 H         9.2225811913      -10.9805894778       -9.0374552201
 H        10.4144473523      -11.1687737146       -7.6836490969
 H        10.1614419314       -9.6449286020       -8.6009843208
 H         7.7940972516       -8.6297986495       -8.1332964077
 H         6.6974314798       -9.1936447953       -6.8234851727
 H         6.9038582400      -10.2462020582       -8.3317477940
 Na        7.7591129733       -9.1869024793       -3.5488680917
 Na      -10.4275696578        3.9724430155      -14.2431802698
