232

 C         8.6124529883      -12.7829700832       -6.5613615470
 C         8.2024927403      -11.3474070632       -6.1310740426
 O         7.7549511747      -11.0838817345       -5.0580249624
 C         8.6828524147       -9.9730226314       -7.1218536831
 C         9.3870464340       -8.9312113171       -6.1888714742
 O         8.7713468693       -8.1601524840       -5.5591783149
 C        10.9326588358       -9.0571297761       -6.1084607896
 C        11.5554027808       -8.2469279410       -4.9229998412
 C        10.9163692797       -8.5640912763       -3.5548329141
 O        10.3762214309       -9.6335272458       -3.3463111313
 C        10.9459303384       -7.6927247644       -2.3060840412
 C         9.5889683770       -8.0543848186       -1.6113318461
 O         8.5618449243       -7.6145877866       -2.1689911507
 C         9.5238910976       -8.6517545392       -0.2124780643
 C         8.1524947930       -9.0609641362        0.3649417100
 C         7.5192952205      -10.1743973897       -0.4296205297
 O         8.0004169498      -10.5644758118       -1.5121341247
 C         6.0625220913      -10.6254634495        0.0613724420
 C         5.2519352030       -9.3255471006       -0.5109059437
 O         5.0720330692       -8.4063008896        0.2954507596
 C         4.9272585755       -9.2313812578       -1.9546992997
 C         4.8374861270       -7.7669105738       -2.4930472762
 C         5.4193669471       -7.4765127681       -3.8477406959
 O         5.9346401047       -8.2824533290       -4.5629781137
 C         5.2890733755       -5.9031884541       -4.3853475073
 C         3.7359660231       -5.8526790378       -4.8601307470
 O         3.0686674770       -6.7831644585       -4.5720101803
 C         3.2549474373       -4.5983839211       -5.7015687112
 C         2.0661303230       -4.8733445435       -6.5348772641
 C         1.1377524510       -3.6073540439       -6.8592473844
 O         0.5378668896       -2.9828175371       -5.9858605234
 C         0.8727383467       -3.1733649466       -8.3448126191
 C        -0.2944871975       -2.1226608565       -8.5834873070
 O        -0.1714534662       -1.0487041799       -9.1154811792
 C        -1.7051206175       -2.5838642189       -8.1536615897
 C        -2.6956867639       -1.3373529916       -7.9383423078
 C        -4.2158905626       -1.8983197318       -8.1265564132
 O        -4.3515280940       -2.9699285281       -8.7219475892
 C        -5.3426182894       -0.9259212946       -7.5954321978
 C        -5.0226155814        0.5261166862       -8.1944772327
 O        -4.4967639333        0.6079674318       -9.3289517743
 C        -5.5556071236        1.7083367141       -7.4522322671
 C        -5.2971102921        3.0688212611       -8.2620315458
 C        -6.3570945839        4.0990243396       -7.9317596492
 O        -7.3843467957        3.8069150622       -7.4319841278
 C        -6.1444287021        5.6018462885       -8.4167029984
 C        -6.8313056405        5.6876440463       -9.8003943987
 O        -6.3697736579        5.1313865535      -10.7660612640
 C        -8.1324961574        6.3800199011      -10.0478467676
 C        -8.1408612728        7.0442650397      -11.5122422604
 C        -8.5401148114        6.1521762552      -12.7776203210
 O        -9.4124808658        5.3422975862      -12.7115129182
 C        -7.5365984842        6.2478423036      -13.9587619671
 C        -7.4301009494        4.8619258254      -14.6838736359
 O        -8.2570070079        4.6074883398      -15.5666535496
 C        -6.5556317166        3.7470735953      -14.1009529919
 C        -6.6255808071        2.4229003082      -14.8636440408
 C        -8.0398214778        1.7092865748      -14.7981195855
 O        -8.7954385247        1.8713140661      -13.8950085026
 C        -8.5795764520        0.9678810987      -16.2340356420
 C       -10.1487757498        1.0551944756      -16.0889090958
 O       -10.6218659323        2.1854112483      -15.9598200979
 C       -10.9955264741       -0.2500862996      -16.1337702766
 C       -11.6309533272       -0.4796644819      -14.7143705789
 C       -13.0521501472        0.1019626402      -14.5599370806
 O       -13.7129207565        0.3671658348      -15.5203704039
 C       -13.4803684726        0.8285614938      -13.1567517059
 C       -12.8487259477        2.2234480445      -13.2436098902
 O       -11.6908858458        2.4176849308      -12.9739371045
 C       -13.8006698541        3.3747380130      -13.5457505065
 C       -14.1726662892        3.5225258562      -15.0843222747
 C       -13.4053428847        4.7540766738      -15.6378266834
 O       -12.1989739458        4.9564101060      -15.3836740312
 C       -14.3583698264        5.7235795112      -16.4030900231
 C       -15.0061809356        4.9069949550      -17.5789818777
 O       -16.0616222871        4.3208263156      -17.5182908524
 C       -14.1987351052        5.0463593625      -18.9189985289
 C       -14.4134414451        3.8752955460      -19.8997113314
 C       -14.8791860903        4.3096253060      -21.2646316448
 O       -14.7491745346        5.4526860008      -21.5884447236
 C       -15.1912469089        3.1474951928      -22.3371780669
 C       -13.8576203274        3.0094424492      -23.1148533403
 O       -13.0854910969        2.1597023292      -22.8744414398
 C       -13.5387595331        4.1987702010      -24.0703941141
 C       -15.5478467404        1.7615995732      -21.6583655376
 C       -16.3507426950        3.5334949639      -23.2958386821
 C       -15.4879975805        6.3476535397      -15.3811441080
 C       -13.4011765850        6.9214733751      -16.9313648165
 C       -14.9903002804        0.8260358601      -13.2532920860
 C       -12.8804861522        0.1613541257      -11.8406945814
 C        -8.0375028179        1.6745000466      -17.5510053469
 C        -8.0292910324       -0.4215685479      -16.0548015701
 C        -8.1972432238        7.2159328595      -14.9365198185
 C        -6.1187538857        6.6821275555      -13.5119917100
 C        -6.8516067878        6.4813606168       -7.3393414221
 C        -4.7169067853        5.9970330653       -8.7000853837
 C        -6.8040862428       -1.2391366136       -8.0000645447
 C        -5.2235103861       -0.8264466789       -6.0528011008
 C         2.1385662986       -2.6751533945       -9.1278363057
 C         0.4830278112       -4.4890090766       -9.0369974156
 C         5.5796327466       -4.8602545094       -3.3208658486
 C         6.2844689249       -5.7737428391       -5.6226985015
 C         5.6425868176      -11.9087660223       -0.7844895617
 C         6.0000878971      -10.7267101450        1.5723111925
 C        12.3128651850       -8.3166324174       -1.7234949288
 C        11.1036033999       -6.1907052637       -2.4207420432
 C         9.6477565174      -10.4586186662       -8.2435539207
 C         7.3157602239       -9.4854021187       -7.6391829310
 H         8.4939546071      -12.9599320096       -7.6846004760
 H         7.8164744636      -13.4605059333       -6.3307765553
 H         9.5995056647      -13.0871089474       -6.3543025736
 H        11.3700011855       -8.8371797246       -7.0172015586
 H        11.1350346555      -10.1007316359       -5.8226066490
 H        11.5163488170       -7.2080516936       -5.0496582384
 H        12.6298754342       -8.5352274236       -4.8386608654
 H         9.9479504717       -7.9341797729        0.4304649138
 H        10.1070526688       -9.5067970121       -0.0836069596
 H         7.4653868610       -8.2960903177        0.4468037193
 H         8.2870251513       -9.4313330082        1.3833607863
 H         4.0163412211       -9.8205610095       -2.1984910300
 H         5.7710663586       -9.6237542718       -2.5365944462
 H         5.5121977435       -7.1426614298       -1.7586295789
 H         3.8517588487       -7.3714845461       -2.3580260980
 H         4.1475760471       -4.2233893713       -6.2941057617
 H         3.1082060280       -3.8688726900       -4.9459706573
 H         1.4800437029       -5.5462749737       -5.8315130805
 H         2.1936889429       -5.5050542597       -7.3999048042
 H        -1.7475408016       -3.1377444985       -7.2296344871
 H        -2.1609842959       -3.1898373638       -8.8456174789
 H        -2.3722664462       -0.5660689804       -8.6841462455
 H        -2.6441876990       -0.8591728669       -6.9646068339
 H        -5.2470386045        1.7987876015       -6.4088365108
 H        -6.5614276090        1.6176688519       -7.3913947572
 H        -5.5305579438        2.7911045118       -9.3104004551
 H        -4.2348646432        3.3583195011       -8.2590700479
 H        -8.2055180953        7.2668048705       -9.4058750154
 H        -9.1098044847        5.7350839741       -9.9352589905
 H        -7.1597123410        7.4155711274      -11.7285402780
 H        -8.7975514223        7.8530836196      -11.5415174978
 H        -6.9087518818        3.5934651761      -13.0854806448
 H        -5.4297875958        3.8388967177      -14.0581871991
 H        -5.8727020226        1.7295509766      -14.4189107943
 H        -6.4771177027        2.6697678103      -15.8882941707
 H       -10.4283961017       -1.1140865380      -16.5093602569
 H       -11.8239880568       -0.0329996812      -16.8414101183
 H       -10.9318284445       -0.1456456490      -13.9569295532
 H       -11.5603616451       -1.4594617099      -14.5361082886
 H       -13.2645687287        4.2645770698      -13.1688148458
 H       -14.7911483785        3.3003236733      -13.1637577640
 H       -15.2417450029        3.5799850759      -15.1427775038
 H       -13.8613879974        2.6022537169      -15.5992320328
 H       -13.1816984232        5.1451137800      -18.6179276062
 H       -14.4760223231        5.9285358453      -19.4284491875
 H       -15.0342576662        3.0722511591      -19.5237397747
 H       -13.4593616698        3.5217004722      -20.2158195753
 H       -14.2326895917        4.3296168419      -24.9379255297
 H       -12.5484041846        4.1412661897      -24.4356032701
 H       -13.5242222632        5.1344266468      -23.6294778939
 H       -16.2503509120        2.0718020904      -20.8300681895
 H       -14.6391120331        1.2448372809      -21.3309521625
 H       -15.9555443261        1.0597153367      -22.4243682951
 H       -16.6757087360        2.6807929263      -23.9086644192
 H       -16.1966190113        4.3053163241      -24.0996862289
 H       -17.1370379309        4.0509123859      -22.6235951587
 H       -15.9677319994        5.5501604091      -14.8593055455
 H       -16.2211356783        6.8107467890      -16.1006776928
 H       -15.0035298880        7.1359276319      -14.8335713006
 H       -12.8075736770        7.3468563482      -16.1028634826
 H       -14.0118018549        7.7262179342      -17.2469306515
 H       -12.6613914389        6.6097019200      -17.6706405690
 H       -15.2879136892        1.1104021347      -14.2648781675
 H       -15.3420765194        1.5627525235      -12.5255019762
 H       -15.5032546889       -0.1685531951      -12.9720870415
 H       -13.6842682024        0.3733870207      -11.0454093652
 H       -11.9593724705        0.6728343793      -11.6507789931
 H       -12.8176637574       -0.9498645741      -11.8251078411
 H        -8.5521507265        1.4083190509      -18.4991867940
 H        -7.0721970446        1.2314090779      -17.6316522165
 H        -7.9272878165        2.7713914709      -17.5531429509
 H        -6.9262549251       -0.4520092512      -15.9441256135
 H        -8.2679907062       -1.0882542056      -16.9355070515
 H        -8.4790578160       -0.9023061503      -15.2170655806
 H        -9.0156197666        6.6872312929      -15.4153205772
 H        -7.5398307593        7.6356631388      -15.6805750416
 H        -8.5267850817        8.1351035332      -14.4535524915
 H        -6.0373845672        7.7915279530      -13.3774519578
 H        -5.4620924802        6.4336142484      -14.3723628891
 H        -5.7578000683        6.1479263093      -12.6104471148
 H        -7.8289116537        6.1857075427       -7.1110898524
 H        -6.8544293617        7.5777936063       -7.6899464469
 H        -6.2817084226        6.4775686556       -6.4208068865
 H        -4.3169419177        5.7400429793       -9.7379750991
 H        -3.9881649676        5.5883035459       -8.0340302640
 H        -4.5958816650        7.0590795477       -8.7469990728
 H        -6.9434914425       -2.3221047776       -8.0930120457
 H        -7.0189682176       -0.8769176950       -9.0144805483
 H        -7.4845855147       -0.8437023546       -7.2969179367
 H        -5.9798482074       -0.3250269537       -5.6438521431
 H        -4.3627101135       -0.3687693590       -5.6472508338
 H        -5.3218595646       -1.8017528336       -5.5920194579
 H         1.8205367548       -2.2420125462      -10.0997437460
 H         2.8125651333       -3.4912322195       -9.2999837985
 H         2.6496000012       -1.8800876513       -8.5278856403
 H         1.3151648554       -5.1972224319       -9.1688580892
 H         0.1145452895       -4.3892284208      -10.1266696664
 H        -0.3340314039       -5.0639928103       -8.6405903451
 H         6.6155374639       -4.9744804585       -2.9619590343
 H         5.0121201092       -4.7641371648       -2.4272182052
 H         5.5223767647       -3.7995439183       -3.7541878098
 H         5.8979455158       -6.4984584908       -6.3088556444
 H         7.3686584772       -5.9909790976       -5.5297320797
 H         6.2914213309       -4.7685625444       -5.9878242017
 H         6.1772683365      -12.0359109010       -1.6552407792
 H         4.5811103744      -12.0608517517       -0.9682192026
 H         6.0018088677      -12.7524498823       -0.1429425812
 H         5.9281146503       -9.7211319256        2.1266198141
 H         6.8236751960      -11.3715579004        1.9375615449
 H         5.0423553708      -11.3143934889        1.7670549662
 H        13.0928396065       -8.2127993310       -2.4638900895
 H        12.1143068037       -9.2186901343       -1.2832880920
 H        12.6696239410       -7.7232499454       -0.9023169220
 H        11.3967335433       -5.8561696644       -1.3888867033
 H        10.1831454503       -5.6350587319       -2.6617895437
 H        11.9559943421       -5.9620330923       -3.1018220550
 H         9.0446287227      -10.9504117976       -9.0267446996
 H        10.4528451033      -11.0797328959       -7.8598548242
 H        10.0650094267       -9.5701526524       -8.8052506045
 H         7.4321770533       -8.5108422049       -8.1149029203
 H         6.6297562641       -9.3774840296       -6.7981323342
 H         6.9586020980      -10.2832452527       -8.3052022436
 Na        7.8433328813       -9.1867211468       -3.6014338380
 Na      -10.5770650742        3.8195990439      -14.3721581796
