232

 C         9.2141284749      -12.6501375752       -6.4614997487
 C         8.6406567528      -11.2834513830       -6.1779239369
 O         7.9114554323      -11.2416809755       -5.2301113978
 C         8.7271110969      -10.0792482975       -7.1220855361
 C         9.5664513011       -8.9757426396       -6.3371651685
 O         8.9561890432       -8.2128801806       -5.6572234800
 C        11.0940615320       -8.9142766081       -6.3697164983
 C        11.4777662941       -8.0827787860       -5.0892433755
 C        11.0218643381       -8.7470790253       -3.7371969188
 O        10.3153072547       -9.7699254865       -3.7461815352
 C        11.2218467615       -7.9519468030       -2.4615509420
 C         9.8672110704       -7.9906845792       -1.5070772350
 O         8.9680096511       -7.2367904412       -1.7500388255
 C         9.8838992702       -8.6508884316       -0.0750316529
 C         8.4453745235       -9.0293252698        0.3841680345
 C         7.7406848602      -10.0398681240       -0.4765879006
 O         8.2488660806      -10.3817662465       -1.5234751354
 C         6.3105223880      -10.4390288923       -0.1662896851
 C         5.2507492208       -9.3005409923       -0.6008718703
 O         4.8444167154       -8.4741157469        0.2336449301
 C         4.7900306439       -9.2619670723       -2.0183028199
 C         4.6886957609       -7.7260863203       -2.4746594339
 C         5.3026579827       -7.4298012107       -3.8175787410
 O         6.0116057605       -8.2288195995       -4.3675322295
 C         4.9679457929       -6.0530426136       -4.4044087173
 C         3.4578836854       -5.8505313707       -4.7373029246
 O         2.6813510482       -6.7334835306       -4.6397108192
 C         3.0354071422       -4.4273436709       -5.3280651676
 C         2.1122118804       -4.7228074814       -6.4858715111
 C         1.0649592607       -3.6038161754       -6.7356828449
 O         0.4900247393       -3.0648242720       -5.7697417631
 C         0.8520560716       -3.3075000356       -8.2123389880
 C        -0.3739081680       -2.3592485237       -8.4863466478
 O        -0.1994440489       -1.3300050715       -9.0775820364
 C        -1.7818953004       -2.8457858949       -7.9390688575
 C        -2.6958204367       -1.5515560273       -7.8909748532
 C        -4.1887593935       -1.9420569549       -8.1930800895
 O        -4.3643763911       -3.0272510557       -8.7052750695
 C        -5.3263424446       -0.9450156700       -7.6703469450
 C        -4.9336217413        0.5337172114       -8.2285070654
 O        -3.9884304003        0.7674709546       -9.0155625461
 C        -5.8863802008        1.6770006532       -7.8277289930
 C        -5.6100533546        3.0656262113       -8.4562539864
 C        -6.6141825175        4.1776591515       -8.0191846171
 O        -7.6537617154        3.9777500774       -7.4795041389
 C        -6.1667730288        5.6237747294       -8.5019275902
 C        -6.7746024109        5.6904448822       -9.9834101619
 O        -6.2218394875        5.1060742611      -10.8880773550
 C        -8.1816411117        6.3623872064      -10.0987837940
 C        -8.4024610910        7.0964813908      -11.4873404800
 C        -8.5722747333        6.0868456662      -12.6141327084
 O        -9.6642330100        5.4359938135      -12.7603341060
 C        -7.5707709101        6.1632453401      -13.8553172058
 C        -7.5317443862        4.7026269104      -14.4505033421
 O        -8.3651738380        4.4679147729      -15.3231722996
 C        -6.6168251629        3.5630779846      -13.9303998321
 C        -6.5362433164        2.3275359032      -14.7760705199
 C        -7.9529252447        1.7996330085      -14.7073847625
 O        -8.6507951296        1.7545330512      -13.7552822896
 C        -8.5024249569        1.0127003709      -16.0151303223
 C       -10.0593304872        1.0819988389      -16.1075635145
 O       -10.6269433861        2.1469987487      -16.2928520152
 C       -10.9926333854       -0.1683080115      -15.8945481881
 C       -11.6095553331       -0.1839728394      -14.4793416928
 C       -13.1077644311        0.3227237441      -14.5088296184
 O       -13.7672702890        0.3042519676      -15.5276454831
 C       -13.6294018509        0.7889103818      -13.1194314066
 C       -12.9704874534        2.3894751362      -13.2168825967
 O       -11.8133053199        2.5250781294      -13.1427177637
 C       -13.8617845846        3.5519452413      -13.5338245464
 C       -14.1088211337        3.8198199541      -15.0320056347
 C       -13.4222161042        5.0817121575      -15.5558379343
 O       -12.1745124596        5.1395818059      -15.4329398286
 C       -14.3151730650        5.9763266305      -16.4071362910
 C       -15.0034126628        5.1537638231      -17.6745069170
 O       -16.1212544653        4.7531425888      -17.6795606413
 C       -14.0497256139        4.8795233129      -18.9570755216
 C       -14.7786410367        3.7097482854      -19.7155230747
 C       -14.9964959808        4.2084634731      -21.1376601132
 O       -15.2049946554        5.3634544194      -21.3411719198
 C       -15.1637934759        3.0907564057      -22.3093798937
 C       -13.8693897950        2.9418228241      -23.3643416517
 O       -13.3264721744        1.9335813726      -23.5450245320
 C       -13.4076360484        4.3037565740      -24.0240105849
 C       -15.5597118347        1.5816301585      -21.8058358421
 C       -16.4431794406        3.5553901155      -23.1390358875
 C       -15.6666977773        6.4793031116      -15.5652354802
 C       -13.6969794779        7.3123821524      -16.9784408880
 C       -15.1895135627        0.9185487019      -13.1034067189
 C       -13.0182801798       -0.0022651298      -11.9276831703
 C        -8.0604045505        1.5188182704      -17.4495388692
 C        -8.0896488294       -0.5187390844      -15.8712465541
 C        -8.2462520998        7.1327461393      -14.9252894028
 C        -6.0759658242        6.6698826997      -13.5909639417
 C        -6.8048641090        6.6555712617       -7.5292215518
 C        -4.6272744487        5.7858817063       -8.4607040933
 C        -6.7669145284       -1.4057148142       -8.1709467892
 C        -5.1241221609       -0.9811543520       -6.1544791234
 C         2.2757118019       -2.6711284730       -8.5317962576
 C         0.6573178410       -4.5586713547       -9.0654972345
 C         5.2818834564       -5.0284395240       -3.3636561145
 C         5.8427257288       -5.7842150261       -5.6985327709
 C         5.9349979278      -11.8265505175       -0.8339901565
 C         6.1263815714      -10.6852040199        1.3486303268
 C        12.3067073901       -8.5941521042       -1.4526971644
 C        11.6273577189       -6.4483507324       -2.8438233139
 C         9.4623529692      -10.4387691872       -8.4958598115
 C         7.2753492437       -9.4334724574       -7.3398313330
 H         9.1747247191      -12.8135237928       -7.5616741962
 H         8.5166184575      -13.4005872722       -6.0967127919
 H        10.2407513155      -12.8470366470       -6.2267164328
 H        11.5819374685       -8.4322182972       -7.2016810361
 H        11.5093691999       -9.9400770432       -6.2997043006
 H        10.9393408211       -7.1108511829       -5.1921476959
 H        12.5347301464       -7.9393051344       -5.0462781431
 H        10.1352906125       -7.8401580187        0.6606278058
 H        10.5724627628       -9.4925347573        0.2514562095
 H         7.8674491793       -8.0826307290        0.2519784621
 H         8.4092830610       -9.1877474405        1.4915774311
 H         3.7770303987       -9.6625560187       -2.1075150598
 H         5.4000722922       -9.7116381949       -2.7580992604
 H         5.2595682955       -7.1164841750       -1.7764057650
 H         3.5917593290       -7.4826778426       -2.4528620140
 H         3.9295308834       -3.8538908737       -5.6153491310
 H         2.5324183922       -3.8790044483       -4.5360986291
 H         1.6233201782       -5.6641300782       -6.1958924314
 H         2.6118849860       -4.9714519437       -7.3713911532
 H        -1.8097769490       -3.3828101324       -7.0119832440
 H        -2.1658075473       -3.4992965111       -8.7581703987
 H        -2.3770801021       -0.9734247806       -8.7773148966
 H        -2.4933640510       -0.9141749413       -7.0147297491
 H        -5.7736572664        1.7933595882       -6.6506379927
 H        -6.9102477773        1.4626436968       -8.0369541104
 H        -5.6835148361        2.9313836144       -9.5054287191
 H        -4.5499849844        3.2779775378       -8.1998927231
 H        -8.3827661963        7.1092383188       -9.3518770256
 H        -8.8804711518        5.5168791431      -10.0527725585
 H        -7.4830321353        7.6591272546      -11.7078675591
 H        -9.2875638022        7.7381892709      -11.5198742918
 H        -6.9279490065        3.1163123831      -13.0277470990
 H        -5.5590554615        3.9269274232      -13.6175639219
 H        -6.0168806709        1.4410102909      -14.2911985974
 H        -6.1628515603        2.4671119627      -15.8024069648
 H       -10.4241025891       -1.1275260099      -16.0961600968
 H       -11.7799015239       -0.2018297157      -16.5836723802
 H       -10.9582947621        0.4361267356      -13.7439570595
 H       -11.4798328413       -1.1903978477      -14.0665522393
 H       -13.2402376793        4.3847309444      -13.2787649144
 H       -14.7384207974        3.4160425308      -12.9339898298
 H       -15.1562807999        3.8796517327      -15.4134806105
 H       -13.6110094937        2.9494440738      -15.5534666885
 H       -13.0005960392        4.6053153634      -18.6465822927
 H       -14.0103394196        5.8471033963      -19.5156516490
 H       -15.8411777140        3.6059733005      -19.3244984893
 H       -14.1045360469        2.8452930375      -19.6327979178
 H       -13.5078027277        4.3084050872      -25.1631701713
 H       -12.3635517518        4.5373526100      -23.8317944406
 H       -13.8140123568        5.2251438588      -23.7034503089
 H       -16.5418999585        1.6012986880      -21.2593210844
 H       -14.8058474963        1.2348199955      -21.1278279184
 H       -15.4900999554        1.0815203283      -22.7674218732
 H       -16.4937218769        3.0917093370      -24.0490114170
 H       -16.4163724253        4.6318741224      -23.2900740069
 H       -17.3945457819        3.3804405950      -22.6360838349
 H       -16.1307665860        5.7113288715      -15.0036518244
 H       -16.4507248397        6.7916402534      -16.3130534603
 H       -15.3074347113        7.3043314483      -14.9818975364
 H       -13.7068090068        8.1065682541      -16.1811174571
 H       -14.3153673054        7.7027892503      -17.7621172024
 H       -12.6665340077        7.1785405427      -17.2604765830
 H       -15.4859525937        1.3452528362      -14.0202560652
 H       -15.6391308122        1.2935833807      -12.2261829978
 H       -15.5324692711       -0.1233488560      -13.1355255179
 H       -13.4263215864        0.4965045873      -10.9703536208
 H       -11.9693483398       -0.0716334137      -12.0058833973
 H       -13.5792024211       -0.9171800448      -11.9713566004
 H        -8.4427493170        0.8589858908      -18.2035596823
 H        -6.9648196040        1.6674784060      -17.5579410339
 H        -8.5646656859        2.5089598915      -17.6462674643
 H        -7.0050475322       -0.5862810230      -15.8838980807
 H        -8.4803594253       -1.1145816773      -16.6962719030
 H        -8.3815534488       -1.0320376618      -14.9878660526
 H        -9.2652889608        6.9522327272      -15.1561662117
 H        -7.6583407247        7.0702577902      -15.8559073319
 H        -8.1232883575        8.2423596780      -14.6910588651
 H        -6.0830216668        7.7345133286      -13.4060001186
 H        -5.5618952172        6.5671825082      -14.5400971816
 H        -5.5792860466        6.1711123769      -12.8335737514
 H        -7.7943091131        6.3444287270       -7.3896622417
 H        -6.7894976190        7.7269916390       -7.8993588211
 H        -6.3625940282        6.6300166059       -6.5569617026
 H        -3.9457543064        5.2045953035       -9.1281465029
 H        -4.2690530625        5.8255117534       -7.4825075366
 H        -4.3483612542        6.8174899695       -8.7781874926
 H        -7.4084442147       -1.7584438936       -7.2851982976
 H        -6.6416199408       -2.2591333697       -8.8220852540
 H        -7.3464542686       -0.6448668465       -8.6434632556
 H        -5.8051345504       -0.4139257106       -5.5673962834
 H        -4.0670210203       -0.5924883521       -5.8729384079
 H        -5.1261100205       -1.9958195170       -5.6322559767
 H         2.4873124915       -2.7726712067       -9.6119773776
 H         3.0069319164       -3.0673396160       -7.9186067044
 H         2.3060342514       -1.6152065282       -8.2139116590
 H         1.5659760489       -5.1057995131       -9.2342823119
 H         0.3655027441       -4.3506660994      -10.0937895916
 H        -0.0138764075       -5.2826284763       -8.7488933910
 H         6.2619599265       -5.0658318686       -2.8998947182
 H         4.5957573700       -5.0164534082       -2.6087245455
 H         5.2277292597       -3.9789587340       -3.7474245332
 H         5.2577903358       -6.1131131836       -6.5785559260
 H         6.7492844785       -6.4145330812       -5.7081313224
 H         6.1779282903       -4.7766736600       -5.8018439182
 H         6.2570494544      -11.9181901691       -1.8830583198
 H         4.8225669459      -11.8264665543       -0.7803514093
 H         6.3597199349      -12.7188807391       -0.3305854974
 H         6.2783315518       -9.7949212507        1.9100491680
 H         6.8447620700      -11.3957349292        1.6187132380
 H         5.1878561954      -11.1281821995        1.6011581737
 H        13.3752233700       -8.4007341899       -1.7947711705
 H        12.0773235903       -9.6656527225       -1.3067101003
 H        12.1971960925       -8.1948113167       -0.4407806554
 H        11.8032352103       -5.8342297311       -1.9870474713
 H        10.9081095965       -6.0567862055       -3.4802877087
 H        12.6123686315       -6.4945452584       -3.3321344289
 H         8.9517603539      -11.2558886036       -8.9773872281
 H        10.4396699236      -10.7350308261       -8.2048872649
 H         9.5841369956       -9.5972000295       -9.1735063540
 H         7.3177514922       -8.6315516680       -8.0584817571
 H         6.8956026013       -9.0606272174       -6.4014000560
 H         6.6449053509      -10.2846684817       -7.7241404098
 Na        8.0220187307       -9.4805058900       -3.6248071141
 Na      -10.3080136235        4.0025918949      -14.4313214374
