232

 C       -19.2889698779       -9.0894525731       -0.9495536823
 C       -18.6496076101      -10.4407204680       -1.1736901552
 O       -18.2750560809      -10.6236060429       -2.3339563317
 C       -18.4946864833      -11.5408027738       -0.0669257678
 C       -16.8716121719      -11.6843289025        0.2461541526
 O       -16.2364054818      -12.4241389616       -0.4720309191
 C       -16.1534513156      -11.0198048433        1.4475577672
 C       -14.7441064051      -10.6079499411        1.0757401834
 C       -14.7027396267       -9.5042129594        0.0759247610
 O       -15.7618302566       -8.9126851065       -0.3021768106
 C       -13.4592452000       -9.2318492458       -0.7855515200
 C       -13.6859923292      -10.1434588738       -2.0976325271
 O       -14.2207679974      -11.2026714495       -1.9159087827
 C       -13.1351460865       -9.6245320532       -3.4306704204
 C       -13.2591399944      -10.6196615030       -4.6090901940
 C       -14.6599419548      -10.5276547894       -5.4043438627
 O       -15.6981610253      -10.9002818670       -4.8100272626
 C       -14.8722724634      -10.0530387626       -6.8465562502
 C       -14.3494733061       -8.5308102461       -6.8681178909
 O       -13.5009298496       -8.2258010274       -6.0454678968
 C       -14.8685398641       -7.6314946951       -7.9201650702
 C       -13.8193733132       -6.5581295547       -8.0426248275
 C       -14.2005211057       -5.2834184531       -9.0202637798
 O       -14.8303947516       -4.3659927400       -8.6029318963
 C       -13.5807948346       -5.2287707412      -10.4658318794
 C       -12.0798579311       -4.7530229524      -10.3125696883
 O       -11.3762010784       -5.5194715104       -9.6725033615
 C       -11.7319644257       -3.3979304963      -10.7678670221
 C       -10.5325282545       -2.6294906612      -10.0502771116
 C       -10.2464315751       -1.2258251815      -10.6209534015
 O       -10.8571583843       -0.9728563293      -11.6461667008
 C        -9.3768729477       -0.2167802914       -9.8611588462
 C        -7.8966815041       -0.4561430934      -10.3718078650
 O        -7.5341960638       -1.6548434870      -10.4545502159
 C        -6.9567768230        0.5990417511      -10.8616077504
 C        -5.4716168784        0.0856569029      -10.7833046095
 C        -4.5204661610        1.1418828763      -11.2955322690
 O        -4.6717924969        2.3127063868      -11.0331815458
 C        -3.2044444174        0.7919747626      -12.2641181273
 C        -2.1876923083        0.0980923864      -11.0786437345
 O        -2.2780278256       -1.1138940014      -10.9213861456
 C        -1.4394924171        1.0450457562      -10.1039124667
 C        -0.1474035969        0.3930621067       -9.4866017935
 C        -0.0170358719        0.6197440789       -7.9897749361
 O        -0.8941975277        1.1146967544       -7.2436181924
 C         1.2413313695       -0.0312207461       -7.2437671777
 C         2.5168275206        0.6369586691       -7.8034986093
 O         3.2868219766        0.0257255565       -8.5718489411
 C         2.7336642998        2.1560461461       -7.5100321310
 C         3.9630491295        2.8265028441       -8.2019546357
 C         3.6656153802        3.2188666789       -9.6732136096
 O         2.9299486350        2.5690896394      -10.3792505459
 C         4.6631910103        4.3717263966      -10.2242684110
 C         4.5795846165        4.3925533329      -11.7578597274
 O         5.3246981990        3.8008449446      -12.5406727227
 C         3.4687617311        5.2043607520      -12.4847112879
 C         3.6402683457        6.6473322360      -12.8578909367
 C         4.6903576301        6.7747590510      -13.9783959114
 O         5.5122974172        5.9232892217      -14.2362723626
 C         4.6924326878        7.9955967568      -14.9190561179
 C         5.8284357130        7.8055515270      -16.0471033180
 O         5.5469092163        7.2750615469      -17.1244793439
 C         7.3479742240        8.1754741143      -15.7025409162
 C         8.2675688054        7.4037870247      -16.6659481666
 C         7.8545934911        5.9348891571      -16.7359718149
 O         7.7471841151        5.3074279901      -15.6622741158
 C         7.9088582978        5.1476508747      -18.1381724310
 C         9.1803358799        4.1917229268      -17.9524363121
 O         9.9004317571        4.3057123287      -16.9878757197
 C         9.4493150839        3.1284698137      -19.0562829413
 C        10.3623997962        2.0540950107      -18.4596698345
 C         9.6386915782        0.9025170894      -17.7371962022
 O         8.4378146731        0.6716805434      -17.6508230187
 C        10.6811619255       -0.1917874485      -17.1009795842
 C        10.4901851308       -0.0866157089      -15.5320521404
 O        11.2473808913        0.5214756599      -14.8563919064
 C         9.2381789637       -0.8856342365      -15.0208139355
 C         8.6160355402       -0.1750652807      -13.6834660092
 C         7.3956857270        0.6731130781      -14.0645625825
 O         7.4621409918        1.8529978716      -13.9715595849
 C         6.0228065315        0.0677600071      -14.5934758233
 C         5.4480333048        0.6788188341      -15.9103815956
 O         5.2747670663        1.8807759715      -15.9685934255
 C         5.3218221235       -0.1934776646      -17.1536186891
 C         5.9404507821       -1.5811037608      -14.7523694701
 C         4.9896162776        0.4575873824      -13.4659948402
 C        10.3019777792       -1.6196768166      -17.5702484524
 C        12.1707209830        0.1649297899      -17.3953379850
 C         6.6252767093        4.1757650218      -18.2808209238
 C         8.0876518388        6.0060630883      -19.4390337312
 C         3.3752867529        8.0700349973      -15.7760990053
 C         4.9140795567        9.2952580100      -14.1300475820
 C         3.9899334985        5.6297309881       -9.5869880790
 C         6.0897791545        4.2580767766       -9.6556457366
 C         1.3055352791        0.2319516919       -5.7167330445
 C         1.3986659123       -1.5743928101       -7.6216501961
 C        -3.4694186771       -0.3292450802      -13.3847077189
 C        -2.6866153907        2.1896163077      -12.7431537762
 C        -9.8519640156        1.2643727349      -10.1827499901
 C        -9.1463900680       -0.4861747027       -8.2864316207
 C       -13.5230705325       -6.5962943106      -11.1020659832
 C       -14.4612332051       -4.3353131615      -11.3907458878
 C       -13.9807001049      -10.8333136187       -7.8899742632
 C       -16.3577440071      -10.1536565402       -7.2712301759
 C       -13.3626013888       -7.7663017225       -1.2867635975
 C       -12.1237658172       -9.6651515881       -0.1742462330
 C       -19.2350811631      -11.1886027660        1.2232369391
 C       -18.8941771039      -12.9120634593       -0.6645814086
 H       -18.9334986714       -8.7349736281       -0.0191870311
 H       -20.4183823308       -9.1498255675       -1.0256897491
 H       -18.9698963957       -8.4389317647       -1.7506507174
 H       -16.0419494541      -11.7981316657        2.2427973523
 H       -16.7809152478      -10.1660585386        1.7291548848
 H       -14.1765173339      -11.4621709336        0.6629870491
 H       -14.2511557654      -10.2083810727        2.0007965550
 H       -12.0907983870       -9.3120061166       -3.2169932366
 H       -13.6411385332       -8.7037965203       -3.7111955694
 H       -13.1422456785      -11.6612467673       -4.2938597290
 H       -12.3796735216      -10.5344994927       -5.2780642558
 H       -15.8190264531       -7.2353390673       -7.5990920826
 H       -15.0600778461       -8.0856923077       -8.9262610392
 H       -12.9020496357       -7.0541555740       -8.4736431697
 H       -13.5730204030       -6.1625278289       -7.0745645506
 H       -12.5193988722       -2.6628890586      -10.5001048591
 H       -11.4672014467       -3.4781771968      -11.8504713881
 H        -9.6690102302       -3.2334559549      -10.1412435910
 H       -10.7746716455       -2.5791306210       -8.9819413501
 H        -7.1200129334        1.5237117385      -10.3518599004
 H        -6.9873046856        0.9072698395      -11.8775498153
 H        -5.3898210870       -0.8665504396      -11.3628835385
 H        -5.2336480436       -0.0495121311       -9.6984238425
 H        -1.9684998192        1.1380739430       -9.1267807933
 H        -1.3276522186        2.0739480024      -10.6389162581
 H         0.6248591263        0.7498015371      -10.1558048003
 H        -0.2043487923       -0.6366750535       -9.5643094000
 H         2.9968176590        2.0853942404       -6.4938123272
 H         1.8247030634        2.8318449914       -7.6312925918
 H         4.6848581176        2.0278316879       -8.2026670528
 H         4.3045736851        3.6512506938       -7.6299314031
 H         2.5317878411        4.9940775345      -11.9003856555
 H         3.4844290744        4.6018038554      -13.3713487406
 H         3.8250667454        7.3594872643      -12.0050498225
 H         2.6736568636        6.9592818075      -13.3190975426
 H         7.5917870605        7.9248654377      -14.6535858950
 H         7.4427109594        9.2303205382      -15.8244515691
 H         9.3890975793        7.4226319551      -16.4421164118
 H         8.1340823553        7.8484876034      -17.7016499578
 H         9.9950798171        3.6115060330      -19.8203355782
 H         8.4530520964        2.7504854149      -19.4031420568
 H        10.9751968472        2.4854805520      -17.6882051895
 H        11.0897943081        1.5685930406      -19.0855054111
 H         9.5671048666       -1.9544871024      -14.8166284778
 H         8.4842549005       -0.9049738226      -15.8139619407
 H         9.4032335816        0.3152814340      -13.0343979496
 H         8.3827007546       -0.9717225534      -13.0375545651
 H         6.2486538778       -0.5544623981      -17.4796122686
 H         4.7752382063        0.4304495779      -17.8821457745
 H         4.7039521087       -1.1089147419      -16.9932309925
 H         4.8705082779       -1.9027316199      -14.6822904176
 H         6.6020740050       -2.1209898907      -14.0689050536
 H         6.3189316109       -1.9010792476      -15.7405603824
 H         4.0391722424        0.0755053875      -13.9540615906
 H         5.0270181154        1.5239268553      -13.2814021138
 H         5.2926317743       -0.2767819792      -12.6535777235
 H        10.8764520034       -1.9445412532      -18.4721235534
 H         9.2772029946       -1.9071494719      -17.7995605831
 H        10.5594520376       -2.4209786992      -16.8900003154
 H        12.3692873781        0.1284359375      -18.4541764149
 H        12.7213475208       -0.5010996315      -16.7742135390
 H        12.4896441124        1.1530309642      -17.1203702407
 H         6.9229298105        3.1210066146      -18.2692678852
 H         6.1831948172        4.3562930230      -19.2944477149
 H         5.8985222921        4.5226194962      -17.5612081534
 H         8.9725601969        6.6446723195      -19.2632225552
 H         7.2313444271        6.5632334864      -19.6584605662
 H         8.2157322868        5.3206564864      -20.3054211585
 H         2.5067842778        8.0929794188      -15.1362040763
 H         3.4319742662        7.2685221111      -16.5661351877
 H         3.3598176117        8.9736235808      -16.3452191349
 H         4.8781255087       10.1437484772      -14.7690471767
 H         5.7956798643        9.3335407333      -13.5169372083
 H         4.1100981450        9.3916933247      -13.3747368715
 H         4.0753637611        5.5690190850       -8.4990952449
 H         2.9165431333        5.8943835467       -9.7602956002
 H         4.5159902560        6.5372306751       -9.8840510188
 H         6.6798154798        5.2013761823       -9.8457871187
 H         6.7055351689        3.4316620698       -9.9638822120
 H         5.8398947983        4.2185506887       -8.5863839767
 H         1.1951071178        1.2803554680       -5.4780170414
 H         2.1494549754       -0.1355427098       -5.2995577884
 H         0.5149057436       -0.1957907598       -5.1940677535
 H         0.6501050987       -2.1090459847       -7.1042526520
 H         2.4000114908       -1.9134047774       -7.2735519011
 H         1.4602245540       -1.7544930407       -8.6541569802
 H        -4.2820591815       -1.0434680457      -13.1159931650
 H        -2.5421812208       -1.0430393637      -13.3987483426
 H        -3.5958816309        0.1038894541      -14.3866024534
 H        -1.8454514786        2.2049869929      -13.4169803079
 H        -2.4168696276        2.7541826567      -11.8058992101
 H        -3.5269954039        2.8536772584      -13.0786241146
 H       -10.6370278328        1.4723237223       -9.4262286944
 H       -10.2851192589        1.4729586977      -11.1598134063
 H        -9.1192325869        2.0979332551      -10.0812238248
 H       -10.0912537596       -0.3461442785       -7.8338073714
 H        -8.4712691240        0.2435072667       -7.8337717355
 H        -8.9363090014       -1.5572798020       -8.2508045140
 H       -13.0623838531       -6.6180784520      -12.1223018114
 H       -14.5003998494       -7.0091766146      -11.2527809709
 H       -13.1052401243       -7.3091092148      -10.3855905186
 H       -15.3984821296       -4.8450805162      -11.7296773349
 H       -13.9163880459       -3.9712297439      -12.3092497174
 H       -14.8410156280       -3.4770027548      -10.8942736719
 H       -12.9335089080      -10.3638326960       -7.9446066636
 H       -14.4186019569      -10.8104859129       -8.8983564033
 H       -13.7209551338      -11.8248383871       -7.5879220810
 H       -17.0748313762       -9.6427325805       -6.5373008554
 H       -16.8710830548      -11.1591067065       -7.4368449350
 H       -16.6155659306       -9.7139306260       -8.1707161840
 H       -14.2389643478       -7.4735051553       -1.8266748664
 H       -12.4990992328       -7.6297508554       -1.9250805468
 H       -13.2714476908       -7.0484998182       -0.4652803551
 H       -12.4053973146      -10.6291518306        0.2439109353
 H       -11.8317860845       -9.0407726453        0.6480179660
 H       -11.2719670309       -9.7189488273       -0.9855932451
 H       -18.9315441169      -10.1414133090        1.5238237864
 H       -18.9132687233      -11.8767852696        1.9734840774
 H       -20.2384189340      -11.2514597934        1.2624168827
 H       -18.5568300087      -13.7202530999       -0.0658963522
 H       -18.5782873772      -13.0505321209       -1.7040887021
 H       -19.9642829520      -12.8745462879       -0.6558602959
 Na      -16.3336241531      -11.6310430441       -2.7025032959
 Na        6.1580453517        3.6116681483      -14.9477770008
