232

 C         9.9393055708      -12.5023759264       -6.6267409271
 C         9.0796675869      -11.3597588274       -6.1914945889
 O         8.5306071043      -11.4434537717       -5.0578900964
 C         8.8655837346      -10.0642209870       -7.1767084039
 C         9.6582082868       -8.9079746329       -6.3960970263
 O         8.9435191362       -8.1289354054       -5.7931506647
 C        11.2649273658       -8.8570419182       -6.3680970236
 C        11.7512149177       -8.0103277901       -5.1476557825
 C        11.2815617403       -8.7813525864       -3.8686689315
 O        10.5069490506       -9.6875496224       -3.9503886452
 C        11.7318434648       -8.1719406556       -2.4323131825
 C        10.3451648423       -8.2465118673       -1.6879325728
 O         9.2922094869       -7.8018448050       -2.1684686837
 C        10.2539565576       -8.7804245342       -0.2230044328
 C         8.7782683538       -8.9937809625        0.2745910815
 C         7.8464659018       -9.9073434791       -0.5720860471
 O         8.1061729346      -10.0917625128       -1.7604474506
 C         6.5814454241      -10.5341152885       -0.0180993606
 C         5.5130126920       -9.4489786328       -0.5182532608
 O         5.2644347021       -8.5876145012        0.2417198537
 C         5.0695263432       -9.4557761312       -2.0076283091
 C         4.3609219666       -8.0682115763       -2.3706652031
 C         5.1778346954       -7.3556173844       -3.4630706466
 O         6.3270348109       -7.6701314618       -3.7647839964
 C         4.5815451113       -6.0792988981       -4.1684200624
 C         2.9586092411       -6.1288445739       -4.4636773447
 O         2.3928934345       -7.2355391740       -4.4425437581
 C         2.2929006543       -4.8132308705       -4.8559733476
 C         1.9140372480       -4.7741951097       -6.3223877780
 C         0.9435821233       -3.5724752624       -6.7013935300
 O         0.6722496078       -2.7745627800       -5.8664622220
 C         0.8516454930       -3.2850048129       -8.2698272320
 C        -0.3550280058       -2.3090579297       -8.6045365638
 O        -0.1653600488       -1.1899549204       -9.0956012786
 C        -1.7668109713       -2.7667514478       -8.0645673864
 C        -2.7012267436       -1.5418973756       -7.8480132223
 C        -4.1457156644       -1.9843126591       -8.1656231155
 O        -4.3697521316       -3.0349041837       -8.7186492040
 C        -5.3858613400       -1.0233793815       -7.7614892184
 C        -5.0822924042        0.4727417170       -8.1734127081
 O        -3.9598026504        0.7953843361       -8.3813872192
 C        -6.2172497814        1.4004178812       -8.3578471711
 C        -5.7560960666        2.8572018205       -8.5528123585
 C        -6.6587723928        3.9916997781       -8.1050833739
 O        -7.7122505240        3.8285989092       -7.5163762098
 C        -6.2266923247        5.5418725276       -8.5326325142
 C        -6.9695668745        5.6924848025       -9.9255644906
 O        -6.4649990668        5.2216026832      -10.9391652847
 C        -8.3021593573        6.4080179729      -10.0943292861
 C        -8.4070965884        6.9937092477      -11.5473661199
 C        -8.6222876322        5.9403699386      -12.7732599318
 O        -9.5835266435        5.2773678942      -12.8285064611
 C        -7.6363603445        6.0271064682      -14.1746720125
 C        -7.5667888395        4.5832289711      -14.6637833048
 O        -8.3568213430        4.1244649209      -15.4636713010
 C        -6.5193107774        3.8234955631      -13.9737338713
 C        -6.6990945856        2.2825448856      -14.1849849977
 C        -8.1867361301        1.8254189838      -14.5652054637
 O        -9.0555899276        2.2978914882      -13.7660682142
 C        -8.5834053686        1.0120446020      -15.7823833068
 C       -10.1630251511        1.1330011019      -15.8363959312
 O       -10.7682986636        2.2051628106      -16.0501599803
 C       -10.9973291752       -0.0988468131      -15.7395777168
 C       -11.7189924007       -0.1811831329      -14.3688952249
 C       -13.1299338218        0.3757437498      -14.4432957611
 O       -13.8033569962        0.2728537337      -15.4633302471
 C       -13.6674418516        1.2176005448      -13.1904538905
 C       -12.8320592869        2.5258650603      -13.3698960667
 O       -11.6567989728        2.6488489558      -12.9672314195
 C       -13.7818820371        3.6720267178      -13.7539141385
 C       -14.0280611029        3.8507691305      -15.2457300693
 C       -13.4583121638        5.1719282753      -15.7646273167
 O       -12.3200443581        5.5159420687      -15.4907514578
 C       -14.3550265282        6.1240737525      -16.6645959668
 C       -14.9981514563        5.1668857666      -17.7459025604
 O       -16.1463353473        4.8684243637      -17.5177476868
 C       -14.2297479981        4.7248872674      -18.9171294065
 C       -14.8506503123        3.5552472048      -19.6171288084
 C       -15.0211363337        4.0357494739      -21.0845134843
 O       -15.1057320717        5.2256527861      -21.3955663197
 C       -15.3600425108        3.0537368482      -22.2661262470
 C       -14.1688661587        3.1973469239      -23.2478714863
 O       -13.6883518862        2.1293494115      -23.7154238764
 C       -13.4709560809        4.4124213931      -23.6152865185
 C       -15.4772730239        1.5827979558      -21.7518504084
 C       -16.6969604904        3.6134285356      -22.8419583450
 C       -15.4530040577        6.7085554227      -15.7876390425
 C       -13.5390682175        7.1571228797      -17.3812312176
 C       -15.1616857353        1.3524737878      -13.3710977932
 C       -13.3319053615        0.5199844144      -11.8099068562
 C        -8.0430657195        1.6559277268      -17.0692568435
 C        -8.0666070264       -0.4006903779      -15.6394764245
 C        -8.5572477260        6.9204563090      -15.0234136814
 C        -6.2897145049        6.7433480218      -13.8038385675
 C        -6.8433211710        6.5210524089       -7.5191354635
 C        -4.7053533868        5.6363713755       -8.6722458869
 C        -6.8197252902       -1.5008853046       -8.2392457290
 C        -5.5058688305       -0.9889205419       -6.2123916715
 C         2.1792006695       -2.4772658123       -8.4471162102
 C         0.7454890222       -4.4734285338       -9.2300510123
 C         4.8615402783       -4.9266083053       -3.2564661887
 C         5.1068849958       -6.0034991223       -5.5667732893
 C         6.3022057575      -11.9027383939       -0.6544412376
 C         6.6434870878      -10.4433956806        1.4572358367
 C        12.8236799745       -8.9877590112       -1.8111861816
 C        12.2846537288       -6.7656682944       -2.6526972270
 C         9.4519825157      -10.2530406373       -8.5322518345
 C         7.3983542594       -9.8120044840       -7.2537661440
 H         9.1860541042      -13.0881087614       -7.1550376398
 H        10.2681389794      -12.9912832030       -5.7112565521
 H        10.7882556229      -12.5023381900       -7.2319079011
 H        11.5726811373       -8.4250604302       -7.2913024993
 H        11.7892835318       -9.8038198251       -6.4208182367
 H        11.1361839828       -7.1799711942       -5.1523538353
 H        12.8356849656       -7.7665416114       -5.1067842021
 H        10.6957374947       -7.9355324918        0.4051979376
 H        10.7442232472       -9.6861015889        0.1595868512
 H         8.3953481083       -7.9725899976        0.2745407116
 H         8.8383244354       -9.2918576330        1.3580146658
 H         4.3019576890      -10.1790478407       -2.1410055219
 H         5.9197295271       -9.7268020699       -2.6394919657
 H         4.3663224527       -7.4160835304       -1.4260803323
 H         3.4173454160       -8.2804927250       -2.7792476920
 H         2.9960899345       -3.9802827315       -4.6075427023
 H         1.3586932145       -4.7053889344       -4.3716252611
 H         1.4248100567       -5.6790826032       -6.6394558270
 H         2.7976844272       -4.6510820544       -6.8941935376
 H        -1.7077112340       -3.3463133871       -7.1587780693
 H        -2.1248907745       -3.2382950777       -8.8654579725
 H        -2.4585405405       -0.7295245801       -8.5937233556
 H        -2.5174767100       -1.1222460757       -6.8627461912
 H        -6.8175873503        1.3737067308       -7.5203105942
 H        -6.7861426756        1.0067771061       -9.2444990577
 H        -5.3540174951        3.0085791513       -9.5803419451
 H        -4.8884234059        2.8666497183       -7.9075373491
 H        -8.2766699364        7.3041646012       -9.4777983673
 H        -9.3089829636        5.9120488617       -9.9503257825
 H        -7.5337687317        7.6027284698      -11.7526307332
 H        -9.2558202860        7.6507539441      -11.5606615762
 H        -6.4527817828        4.1385365558      -12.8811235737
 H        -5.4840199131        4.1177900755      -14.1799086591
 H        -6.4870498258        1.7691732316      -13.2101450279
 H        -5.9069802966        1.8102787472      -14.7705074230
 H       -10.5042153896       -0.9648344900      -16.0390900963
 H       -11.7471228527        0.0107375633      -16.5617837543
 H       -11.1694560001        0.2611586768      -13.5236491671
 H       -11.9557284723       -1.2305764017      -14.1953062305
 H       -13.2706624360        4.5560857958      -13.3899954985
 H       -14.7311987813        3.6096315860      -13.2792003854
 H       -15.1073622241        3.7814402390      -15.4775611127
 H       -13.5690847985        3.0616572045      -15.9432281462
 H       -13.2239821301        4.4975063444      -18.4264046047
 H       -14.0328077448        5.6186074852      -19.5694485170
 H       -15.9242818331        3.4798944032      -19.2648465739
 H       -14.1622460583        2.7016258291      -19.5268966459
 H       -12.8480702170        4.2784092767      -24.4408379721
 H       -12.7593283277        4.7434485891      -22.8329962316
 H       -14.0372530689        5.3805570891      -23.7416549950
 H       -16.2839259940        1.6657316556      -21.0857969405
 H       -14.5203651950        1.4132285426      -21.2396292003
 H       -15.8168641896        1.0019820558      -22.5805929815
 H       -17.2962175898        2.9541323695      -23.4441489169
 H       -16.5987997146        4.5765837950      -23.2156173474
 H       -17.3272127895        3.5806513238      -22.0323461215
 H       -16.3333513265        7.0379989673      -16.3856028344
 H       -15.0633959463        7.5705738022      -15.3086836285
 H       -15.8305539208        5.9506425302      -15.0335291789
 H       -13.1801968766        7.9065988864      -16.7026105812
 H       -14.2122394191        7.5704315309      -18.1557391879
 H       -12.6894397714        6.7108357832      -17.9471431836
 H       -15.4311885930        1.5821854825      -14.4035905491
 H       -15.6223578298        2.1288360571      -12.7922623339
 H       -15.6577685960        0.4314346067      -13.1181342344
 H       -13.9818744483        0.8672992097      -11.0816016865
 H       -12.3432269677        1.0098910630      -11.6373032721
 H       -13.1686614876       -0.5757979552      -11.9528857160
 H        -8.1083977611        0.8977937704      -17.9227253397
 H        -6.9769951556        1.7938896234      -16.9487777555
 H        -8.4769442840        2.6146390406      -17.3200890158
 H        -7.0224854516       -0.5955462228      -15.4940009436
 H        -8.3724282016       -0.9675330882      -16.5111689077
 H        -8.6117585629       -0.8684988130      -14.8485525934
 H        -9.5356265278        6.3995030847      -15.3258009394
 H        -8.1656435818        7.2624024960      -15.9835744223
 H        -8.9174458093        7.6878166358      -14.4267108712
 H        -6.5497867017        7.7255133065      -13.4742222859
 H        -5.6802197866        6.8342761452      -14.6601924624
 H        -5.7729624206        6.2036251310      -12.9661405445
 H        -7.9315646766        6.4851719805       -7.3610537521
 H        -6.6584398941        7.5037036095       -7.8774202505
 H        -6.3097655514        6.4254700224       -6.5782706085
 H        -4.4243399519        4.9627611610       -9.4732731756
 H        -4.0644981800        5.2493276746       -7.8039224736
 H        -4.3382858830        6.6278538307       -8.9135994073
 H        -7.2300542065       -0.8267850216       -8.9165065196
 H        -7.5456169115       -1.6853345908       -7.3944396456
 H        -6.6846630412       -2.4986478214       -8.7498392692
 H        -6.1241802638       -0.0335091100       -5.9157885985
 H        -4.6522345016       -0.9206931039       -5.5450215602
 H        -5.9816902280       -1.9018892764       -5.8213871793
 H         1.9003584040       -1.6385367659       -9.0538288985
 H         2.9651981119       -3.0969456893       -8.9624376905
 H         2.6275791838       -2.1393953122       -7.5117274808
 H         1.5112542999       -5.1773982435       -9.3474783632
 H         0.5863647135       -4.0926823847      -10.2237698354
 H        -0.1422758830       -5.0542169639       -9.0318242032
 H         5.8923489203       -4.8047155075       -3.0798402946
 H         4.4305245153       -5.0570827079       -2.2138708104
 H         4.5748279402       -3.9699827628       -3.5881277982
 H         4.7557689380       -6.7663009370       -6.2346713039
 H         6.1998201748       -5.9669880378       -5.5808692740
 H         4.6066148702       -5.1275024371       -6.0354380242
 H         6.7838833335      -11.9292155224       -1.6379947642
 H         5.2164361863      -12.0760942762       -0.7524905032
 H         6.7312867682      -12.6768267386        0.0366860110
 H         6.5860839899       -9.4992482772        1.9152855306
 H         7.6200853689      -10.8041875051        1.6602750389
 H         5.9731419244      -11.0867349574        1.9673087904
 H        13.8296609977       -8.8694711841       -2.2091656339
 H        12.7126770133      -10.0265702960       -2.0340630762
 H        12.8173567106       -8.7185921944       -0.7206212663
 H        12.6206037550       -6.2427167586       -1.7715768251
 H        11.4685991404       -6.1989906853       -3.1468376500
 H        13.0788114555       -6.8638136790       -3.3120042669
 H         9.0345922852      -11.1669934894       -8.9092995818
 H        10.5094527293      -10.2819291405       -8.6281841713
 H         9.0906352638       -9.3940944901       -9.0822949029
 H         7.1630986362       -8.8354864496       -7.7181149974
 H         6.9584076827       -9.8644569852       -6.2518716120
 H         6.9698105248      -10.5469948776       -7.8549185484
 Na        8.0572787995       -9.3153947003       -4.0678155752
 Na      -10.5820057384        4.0218165411      -14.5065136061
