232

 C         9.9789482787      -12.5950209090       -6.7057474030
 C         9.2187685133      -11.4164104993       -6.1733565534
 O         8.6157846215      -11.3638925343       -5.1364182545
 C         9.0088172380      -10.1226806352       -7.1203025875
 C         9.7584991339       -8.8486884099       -6.4637183999
 O         9.0802622568       -7.9631830904       -5.9356815729
 C        11.2534720447       -8.7219020248       -6.4602060352
 C        11.7298912027       -7.9479637684       -5.1846313055
 C        11.4171240509       -8.8230420250       -3.9618974583
 O        10.6918859797       -9.7555694546       -4.0718463913
 C        11.7632357138       -8.3203141006       -2.5229260020
 C        10.3197865819       -8.2446851439       -1.6643056710
 O         9.3621340979       -7.7666314673       -2.1664017978
 C        10.2804159615       -8.7512491063       -0.2551240749
 C         8.8492282575       -9.0472573904        0.2600324412
 C         8.0165542004      -10.0329774289       -0.6688214142
 O         8.2442949027      -10.2333074504       -1.8398898887
 C         6.6966466768      -10.5394964984        0.0346812636
 C         5.5976069012       -9.3692855769       -0.4855824974
 O         5.2736969753       -8.4876385703        0.2725419943
 C         4.9755873605       -9.4745386687       -1.8911750308
 C         4.3329812316       -8.1509771900       -2.3842345151
 C         5.1454158959       -7.3781969245       -3.4770535285
 O         6.3163396900       -7.6128467441       -3.7241589908
 C         4.4385820638       -6.1273288105       -4.1918493577
 C         2.8982904411       -6.2654273525       -4.4249355654
 O         2.2026005389       -7.2572293501       -4.4325082473
 C         2.1814888978       -4.9231543792       -4.8393858671
 C         1.8453053478       -4.7945932948       -6.3618238905
 C         1.0575873534       -3.5238558649       -6.6920306886
 O         0.5665542678       -2.7842757400       -5.8174976491
 C         0.8742531748       -3.1483762803       -8.2197652671
 C        -0.2915448985       -2.1816256395       -8.5416343224
 O        -0.0750861305       -1.1726551850       -9.1774137029
 C        -1.6844929375       -2.6824806298       -8.0893776059
 C        -2.8181192700       -1.6420188843       -7.7707698636
 C        -4.2315829856       -2.0141444879       -8.1214602148
 O        -4.5204462739       -3.0343538867       -8.7193768206
 C        -5.4452330340       -1.0482786343       -7.6897908084
 C        -5.0823726099        0.3901205655       -8.2902960531
 O        -3.9660705918        0.8579203395       -8.2623354380
 C        -6.3717238901        1.4702277139       -8.4157986958
 C        -5.7001678309        2.9128292627       -8.5944365007
 C        -6.7243934398        3.9612223578       -8.1257673551
 O        -7.7388152436        3.6920831855       -7.5213130058
 C        -6.3429876708        5.4271755823       -8.5972109018
 C        -6.9129117667        5.6557990111      -10.0075097759
 O        -6.3943372976        5.0849140885      -10.9507983749
 C        -8.2387671367        6.4607790191      -10.2178710794
 C        -8.4285387512        6.9212192426      -11.6964549080
 C        -8.6212075847        5.9666973313      -12.7547822718
 O        -9.6335576948        5.2632320341      -12.7375760220
 C        -7.8245889656        6.1161092624      -14.0424550896
 C        -7.5100231562        4.6548658256      -14.6876894108
 O        -8.2580335195        4.1875787646      -15.5733080213
 C        -6.4662662497        3.7785360257      -14.0095261058
 C        -6.7348695349        2.2660960530      -14.1023607605
 C        -8.2579780824        1.9850959388      -14.4200148398
 O        -9.1051111750        2.1957682303      -13.5626149766
 C        -8.6488954182        1.0967565297      -15.6605738503
 C       -10.2719279941        1.1479577140      -15.7849252124
 O       -10.7822574016        2.1898932705      -16.0949750348
 C       -10.9939057362       -0.2152662638      -15.6603169124
 C       -11.7132157661       -0.2366895662      -14.2471503960
 C       -13.1041403587        0.3565968161      -14.4310918593
 O       -13.7831323061        0.3293430542      -15.4255892341
 C       -13.6585266789        1.1786120502      -13.1940134911
 C       -13.0176728956        2.6161340382      -13.2884593907
 O       -11.7761643396        2.6953205014      -13.0671273376
 C       -13.7278855399        3.8634880198      -13.8229426345
 C       -13.9876670687        3.8915859744      -15.3435457027
 C       -13.3446462152        5.1780197696      -15.8276947183
 O       -12.2262122941        5.4020123575      -15.5125791869
 C       -14.2932932757        6.1754076179      -16.6783802742
 C       -15.0278645630        5.1048754279      -17.6745625954
 O       -16.1380750217        4.7622480792      -17.5347252203
 C       -14.1751889201        4.6918841026      -18.8864412759
 C       -14.9401630458        3.6343674403      -19.6943056485
 C       -15.1456499018        4.1015983919      -21.0874349184
 O       -15.0109489727        5.2782293528      -21.3260338392
 C       -15.4300451928        3.0832189428      -22.1705047814
 C       -14.1751973480        3.1069644294      -23.2842679148
 O       -13.7842143645        2.0813082018      -23.6854576831
 C       -13.5706885352        4.4544616953      -23.5697689668
 C       -15.4115767772        1.5257979660      -21.7106901358
 C       -16.7089546434        3.6682229184      -22.8128349295
 C       -15.4982989713        6.7706311127      -15.8264764838
 C       -13.4671639475        7.2299522896      -17.5044845332
 C       -15.1639188511        1.4109262856      -13.3308891161
 C       -13.3581376030        0.3889033543      -11.9011449963
 C        -8.1245557422        1.6913790274      -17.0325159880
 C        -8.1398468644       -0.3239953814      -15.5387935717
 C        -8.6330259191        6.9936594339      -15.0241961799
 C        -6.4117408371        6.7539703805      -13.8561641150
 C        -6.8744032695        6.4152153902       -7.5976720506
 C        -4.8109192242        5.6555202729       -8.7621889285
 C        -6.7378147492       -1.5345009743       -8.3560883591
 C        -5.4211538816       -1.0513468944       -6.1889642056
 C         2.2336416986       -2.4374408664       -8.5127208187
 C         0.6230955680       -4.4772389087       -9.0940208106
 C         4.6331134970       -4.8709678220       -3.2120456989
 C         5.1173738416       -5.9558698651       -5.5365725021
 C         6.3458613227      -12.0198216408       -0.5259982616
 C         6.7038327260      -10.4324680129        1.5985781415
 C        12.8292950958       -9.0793238588       -1.7298340611
 C        12.3564609805       -6.8169042855       -2.6878782994
 C         9.4158921089      -10.3942198417       -8.6020215118
 C         7.4686260941       -9.8314364289       -7.1674882178
 H         9.4514822572      -13.1549507798       -7.3857780912
 H        10.5143832081      -13.0719481465       -5.9215217591
 H        10.8471981985      -12.2204019468       -7.2770447167
 H        11.6658619579       -8.1850124171       -7.3133319797
 H        11.7420174193       -9.5950529445       -6.5512799179
 H        11.2386057424       -6.9860447358       -5.1598562171
 H        12.7758642571       -7.8988949878       -5.1820282210
 H        10.8614289612       -8.1645585317        0.4252834200
 H        10.6575700289       -9.7373368221       -0.1732473343
 H         8.3117115132       -8.0950817763        0.1581467754
 H         8.8738658063       -9.2811598445        1.2852200696
 H         4.1649009312      -10.1923146956       -1.8836204316
 H         5.7828868958       -9.8693124299       -2.5788392625
 H         4.2552903092       -7.4137943702       -1.5401729041
 H         3.3756902308       -8.4598439203       -2.8114590067
 H         2.7685750038       -4.1012518699       -4.5779040152
 H         1.1926676032       -4.8770221651       -4.3471340779
 H         1.3307433207       -5.6188601019       -6.7994658313
 H         2.8032473111       -4.6443300811       -6.8678530975
 H        -1.5830944844       -3.2003617288       -7.2317496252
 H        -1.9296349124       -3.2747479209       -8.9484641897
 H        -2.6722933034       -0.6614422558       -8.2763224311
 H        -2.6761217669       -1.4503978705       -6.7034594025
 H        -7.0185041358        1.4614603689       -7.6084870087
 H        -6.9677328621        1.3396026102       -9.3139307925
 H        -5.3080127839        3.0259144871       -9.6331240924
 H        -4.8233472500        2.9805774507       -7.9641275539
 H        -8.3679550133        7.4166701814       -9.5458820720
 H        -9.1283044074        5.7979137501      -10.0519085206
 H        -7.7104962960        7.6143301133      -12.0094779204
 H        -9.3206651441        7.4974989520      -11.7519275132
 H        -6.4191280291        4.1597479320      -12.9217610876
 H        -5.4569934537        3.9723429301      -14.2239157727
 H        -6.2948823827        1.6722074984      -13.3391105828
 H        -6.2206690426        1.8534154267      -15.0001937227
 H       -10.3404177264       -1.0441732644      -15.8591556796
 H       -11.7355739489       -0.2401098391      -16.4983334599
 H       -11.2354489545        0.3173515397      -13.5475668568
 H       -11.8820953113       -1.2632724833      -13.9451727330
 H       -13.0005982656        4.6152268731      -13.6504576964
 H       -14.6249042638        4.1746675957      -13.2804569936
 H       -15.0756380165        3.8893451775      -15.6039526306
 H       -13.5721552306        3.0281918854      -15.9036062643
 H       -13.1736816667        4.4093391413      -18.5471674031
 H       -14.0148468799        5.6323485529      -19.4748412257
 H       -15.9323432851        3.5766920185      -19.2594827467
 H       -14.3011925293        2.7292552826      -19.6766445015
 H       -12.7840307836        4.4682385710      -24.2753908585
 H       -13.1274402491        4.9447340109      -22.7270577993
 H       -14.3118478430        5.2256793638      -23.8034642493
 H       -16.2231484801        1.2763244055      -21.0133319151
 H       -14.3816540902        1.4566160629      -21.3643792554
 H       -15.6163649426        1.0875478794      -22.6788250384
 H       -17.1748554912        2.9712648346      -23.4900915412
 H       -16.4218919932        4.6787339588      -23.3147943709
 H       -17.5305100198        3.7851339424      -22.0831477422
 H       -16.0125968353        7.5166034246      -16.4584542879
 H       -15.1852815168        7.2762917618      -14.9302834636
 H       -16.2564260735        6.0003272934      -15.6253016068
 H       -13.3068715636        8.0388677469      -16.8326137079
 H       -14.0526292040        7.5198291003      -18.4023619557
 H       -12.5164338663        6.8701070531      -17.8739474658
 H       -15.4987286706        2.0184572334      -14.1578750477
 H       -15.5851013165        1.8936915910      -12.4604623800
 H       -15.6458771304        0.5058738641      -13.4732543832
 H       -13.8717709426        0.9019355742      -11.0716189838
 H       -12.2260188864        0.4317215180      -11.7265666312
 H       -13.6033306493       -0.6367268829      -12.1587034235
 H        -8.0683328984        0.9810216214      -17.8051810476
 H        -7.0196460668        2.0211192286      -16.8688854965
 H        -8.6905610453        2.6316476773      -17.2905364451
 H        -7.0879379748       -0.4522230547      -15.6865116217
 H        -8.5351444257       -0.7873164749      -16.4132045343
 H        -8.4710150638       -0.9913548372      -14.6867174693
 H        -9.6109856311        6.6559034461      -15.2873293498
 H        -8.1051479853        7.0759374552      -15.9858724710
 H        -8.8658928149        7.9852048559      -14.5459850383
 H        -6.4343054186        7.8018905753      -13.7206817263
 H        -5.9661401712        6.5510865098      -14.8014370158
 H        -5.8837596375        6.2933187111      -13.0617591690
 H        -7.9632332304        6.4154197091       -7.3917623179
 H        -6.6607731580        7.3648212319       -7.9362696103
 H        -6.3015143453        6.2799241368       -6.6843438689
 H        -4.3223686595        5.0740673681       -9.5133702286
 H        -4.2057560755        5.3978540469       -7.8375149550
 H        -4.6454846121        6.7468727526       -9.0090258138
 H        -6.7670953601       -1.1152091092       -9.3854227406
 H        -7.6035743337       -1.2304585500       -7.8180479696
 H        -6.7257467825       -2.6369374489       -8.3971143474
 H        -5.8941676226       -0.2482253381       -5.6195521525
 H        -4.3901292506       -0.8814663860       -5.8712178091
 H        -5.6688494753       -1.9790191125       -5.7754279833
 H         2.0907568059       -1.5938442509       -9.1500256238
 H         2.9517215212       -3.1925568905       -8.9625561884
 H         2.6706132003       -2.0797756065       -7.5881511190
 H         1.3215050968       -5.3048632916       -8.9653374361
 H         0.6327313564       -4.3111102023      -10.1216734584
 H        -0.3897540539       -4.9128932336       -8.8933853088
 H         5.6723206517       -4.9084628472       -2.8305853032
 H         4.0362547947       -4.8502287865       -2.2854487687
 H         4.5876384563       -3.9112842399       -3.6658018751
 H         4.7034686716       -6.4489108857       -6.3790773196
 H         6.1149382774       -6.1955768133       -5.3957098533
 H         4.9641935526       -4.9280211234       -5.8016416944
 H         6.9374385726      -12.3458563772       -1.4514085359
 H         5.2979671758      -12.2042282721       -0.6508933609
 H         6.6375056870      -12.5503580491        0.2858969228
 H         6.7564337682       -9.4666219849        2.0592267928
 H         7.5641322798      -10.9572648365        2.0319937812
 H         5.8173122334      -10.8602978235        2.0127025340
 H        13.8322972185       -8.9022937413       -2.0586615578
 H        12.8403203788      -10.1975811070       -1.8531355692
 H        12.7615614929       -8.6809609849       -0.7198512983
 H        12.5604907333       -6.3240100622       -1.7565701924
 H        11.6292577546       -6.2160924413       -3.2233240553
 H        13.2354238330       -6.9083944424       -3.3054808819
 H         8.8196424889      -11.2496622476       -8.8668367951
 H        10.4551778452      -10.6199723900       -8.8585777606
 H         9.0779478949       -9.5663894754       -9.1527210620
 H         7.3415203827       -8.8677232496       -7.6951918080
 H         6.9393774534       -9.8004947238       -6.1965017331
 H         6.9825645046      -10.5902964168       -7.8137763896
 Na        8.0963927237       -9.2247227077       -3.9675575941
 Na      -10.4597909991        4.1479684279      -14.4869512439
