232

 C         9.9741666263      -12.3734738487       -6.3335641236
 C         9.3382117400      -11.0435620660       -6.0202113137
 O         8.9292926071      -10.7611176847       -4.9052463450
 C         9.1806471649       -9.9935525657       -7.2172738069
 C         9.8563296912       -8.7074570569       -6.4936497933
 O         9.2926083445       -8.0998106506       -5.5922847468
 C        11.3244370276       -8.4168894672       -6.8184081094
 C        11.9801616382       -7.8262237218       -5.5405575600
 C        11.8626310743       -8.9122726759       -4.3305825642
 O        11.5109238849      -10.0925358060       -4.5361939442
 C        12.1458554481       -8.3557710696       -2.7794045832
 C        10.7588263495       -8.4613087226       -2.0392803488
 O         9.7584261463       -7.8135977545       -2.4063506483
 C        10.6095920754       -9.1607466503       -0.6762568828
 C         9.0988678990       -9.0135935390       -0.1371848348
 C         8.1168070202      -10.0258122115       -0.6704692518
 O         8.2517121648      -10.5374075737       -1.7832549831
 C         6.7193559223      -10.3500139670        0.0456080166
 C         5.7931213067       -9.2155001459       -0.5311190740
 O         5.7647034348       -8.0978611477       -0.0814564062
 C         4.9047114658       -9.6133586637       -1.7899418924
 C         4.1869272100       -8.4330754081       -2.3497338773
 C         4.9024341026       -7.6423220116       -3.5326363508
 O         5.9433012798       -8.0107812576       -4.0643286656
 C         4.1970451742       -6.2812213303       -3.8370589930
 C         2.6561045975       -6.3988275326       -4.3565199433
 O         2.1821120433       -7.5323697093       -4.4437227143
 C         1.8621118133       -5.2293763796       -4.7295217562
 C         1.8047446637       -4.9603127522       -6.3023215216
 C         0.9400607129       -3.6927871461       -6.6635947166
 O         0.3891195636       -3.0841836168       -5.8135422154
 C         0.8780359864       -3.3735603651       -8.1848135827
 C        -0.3268332779       -2.3398662109       -8.2098879904
 O        -0.1543967029       -1.1687589356       -8.5023436615
 C        -1.7612441414       -2.8381909887       -7.9841592971
 C        -2.7118927564       -1.6390750756       -7.6949476978
 C        -4.1553675276       -1.9157789962       -8.1555603174
 O        -4.3349413882       -2.8089036221       -8.9368406462
 C        -5.3557168172       -1.1270907487       -7.6928501963
 C        -5.1079141100        0.4370654437       -8.2075026001
 O        -4.0555607723        1.0132618427       -7.9361544726
 C        -6.2105703888        1.2755397390       -8.7436220715
 C        -5.8188486857        2.7321327127       -8.9926113848
 C        -6.8683842264        3.7208596878       -8.4729866681
 O        -7.8698283651        3.3732900159       -7.8555228690
 C        -6.5241554099        5.2700365432       -8.6344913577
 C        -7.1735251382        5.7693051193      -10.0620677539
 O        -6.5450700006        5.2811879309      -10.9963542924
 C        -8.5231893818        6.4420248231      -10.2815175532
 C        -8.5186228824        7.2190087800      -11.6982240278
 C        -8.7086643522        6.2164164964      -12.9488134333
 O        -9.6473677113        5.4736024220      -12.9491285813
 C        -7.8181187323        6.4002410973      -14.2783794005
 C        -7.6863204494        4.9221002760      -14.7175493504
 O        -8.4874265988        4.4779941717      -15.5093172897
 C        -6.7008004135        3.9535247076      -13.7446353932
 C        -6.7881542162        2.5651396924      -14.4232824716
 C        -8.2408862835        1.8936635628      -14.3839616898
 O        -9.0089705163        2.2743430024      -13.5512326719
 C        -8.8004996025        0.9855501185      -15.5069409826
 C       -10.4035448004        0.9601308492      -15.4783425078
 O       -11.0039409410        2.0246465165      -15.6087771145
 C       -11.2248682182       -0.3582687836      -15.2874460196
 C       -12.1467211294       -0.4670126940      -14.0721874278
 C       -13.3565546015        0.5584398214      -14.2968940951
 O       -13.8378072390        0.6469745184      -15.4097306060
 C       -13.9514336588        1.4600062430      -13.1011860513
 C       -13.0954507720        2.7752705345      -13.1929907237
 O       -11.9218310874        2.6055287869      -12.9974909329
 C       -13.6888743541        4.0812765898      -13.6783531981
 C       -13.8307493805        4.0270256393      -15.2073992893
 C       -13.1715011129        5.2114676962      -15.8786747259
 O       -11.9746829945        5.4117714247      -15.6434659982
 C       -14.0207268017        6.1072739218      -16.7031968231
 C       -14.7787615128        5.2241340254      -17.7557897531
 O       -15.8789096187        4.7996622978      -17.4292189061
 C       -14.0580488020        4.6541518121      -18.9851891777
 C       -14.8302151104        3.5887505927      -19.7268480876
 C       -15.0873682708        4.0732124296      -21.1394914808
 O       -15.1014231474        5.2847393944      -21.3508262445
 C       -15.5865059114        3.0986601394      -22.3019122173
 C       -14.4104411969        3.0219754697      -23.4527862066
 O       -13.8080675068        1.9385289903      -23.5383677603
 C       -14.0211088032        4.3002480943      -24.1756088509
 C       -15.9039426073        1.5244668196      -21.9789996026
 C       -16.8162464786        3.8542617931      -22.8648306765
 C       -14.9943821961        6.7256895508      -15.6200679843
 C       -13.1958351539        7.3480683742      -17.3941032052
 C       -15.4248105257        1.6255558444      -13.2136515558
 C       -13.6714045613        0.6535398708      -11.7587412141
 C        -8.3767765526        1.5881725856      -16.9052315298
 C        -8.1142922966       -0.3959660406      -15.4722667001
 C        -8.6598239313        7.3556421973      -15.2045424687
 C        -6.4918871573        7.1816725752      -14.1120817881
 C        -7.1096832097        6.0716352047       -7.4038927302
 C        -5.0920744417        5.6649202333       -8.7923573438
 C        -6.7151724737       -1.7114304093       -8.2517875608
 C        -5.3951071778       -1.1451265945       -6.1585198209
 C         2.2417185045       -2.6805935093       -8.3812702970
 C         0.6744905957       -4.5447454772       -9.1324308650
 C         4.2827321459       -5.3902553509       -2.6069707000
 C         5.0710924381       -5.5563001379       -4.9495759192
 C         6.3126887206      -11.8472722082       -0.2831586614
 C         6.7948989985      -10.1506811827        1.6313058811
 C        13.1202528016       -9.3487887103       -2.0650035038
 C        12.6019947486       -6.9583420868       -2.9127969954
 C         9.9160800349      -10.3742952151       -8.5097851186
 C         7.6598384564       -9.7889619991       -7.4209465200
 H         9.9056870169      -12.7572091101       -7.3539211573
 H         9.6846392967      -13.0812698786       -5.5926408539
 H        10.9926981389      -12.3491387352       -6.1063610735
 H        11.3645834670       -7.7687491195       -7.6430146633
 H        12.0075714101       -9.2753406193       -7.0216995500
 H        11.3621356458       -6.9981542680       -5.1660034435
 H        12.9971531899       -7.5792308045       -5.5686164393
 H        11.1726002196       -8.6681104443        0.0632857969
 H        10.9299815798      -10.1885781191       -0.5812341102
 H         8.8460407095       -8.0342516955       -0.5051368168
 H         9.1023982032       -8.8946317136        0.9224560484
 H         4.2195109191      -10.4565584583       -1.5066896293
 H         5.5991958129      -10.0565965926       -2.5060467931
 H         4.0806656753       -7.7039955151       -1.5899235553
 H         3.1602424576       -8.7007613581       -2.8023984154
 H         2.3095265430       -4.3834841480       -4.2111527554
 H         0.8909368169       -5.3826109478       -4.2932746601
 H         1.3564747028       -5.8147340046       -6.7657015214
 H         2.8398964310       -4.9814696354       -6.5936413133
 H        -1.6842261200       -3.5047142565       -7.0631246107
 H        -2.1905610639       -3.4814769368       -8.7294358973
 H        -2.4502439183       -0.7743725193       -8.2820518038
 H        -2.6267655996       -1.3706046143       -6.6205459368
 H        -6.8961072960        1.3318846485       -7.8237530236
 H        -6.7725772471        0.7492534250       -9.4081149224
 H        -5.6104104092        3.0171367509       -9.9926315520
 H        -4.8360035309        2.9749514153       -8.5391303414
 H        -8.7865790983        7.1195247804       -9.4612394955
 H        -9.3846255467        5.7021688562      -10.2965977880
 H        -7.5725740197        7.6856972490      -11.8212586463
 H        -9.1702329776        8.0403210109      -11.7486736509
 H        -7.1055755587        4.1003578305      -12.7923507050
 H        -5.6348884316        4.2386836485      -13.5164879265
 H        -6.1569926183        1.8170589595      -13.9252393567
 H        -6.3916806115        2.6379123255      -15.4383977590
 H       -10.4805578923       -1.2337348029      -15.2574617697
 H       -11.8488766728       -0.4194998094      -16.1414089397
 H       -11.6794091630       -0.3158592007      -13.0921963204
 H       -12.6369081528       -1.3586873691      -14.1775133283
 H       -13.0578888033        4.8246902703      -13.2447619238
 H       -14.6133954302        4.2647639308      -13.1682412120
 H       -14.9030274940        3.8779582846      -15.4906279072
 H       -13.2494058862        3.1395035490      -15.5472935910
 H       -13.0562231966        4.3107500022      -18.6984943784
 H       -13.8305554023        5.5216506151      -19.6711030132
 H       -15.7658684186        3.2622916096      -19.2296084138
 H       -14.1371142545        2.7317730575      -19.7633751610
 H       -13.5320612205        4.1815977791      -25.1551771842
 H       -13.3333897848        4.9739776418      -23.7145776622
 H       -14.8840124773        4.8814568233      -24.3913958993
 H       -16.7896383776        1.6904223239      -21.3464142111
 H       -15.0311246086        1.0544833516      -21.6025074780
 H       -16.0745923752        1.0452205744      -22.9527253049
 H       -17.0757531645        3.6066668665      -23.9425272462
 H       -16.6773153499        4.8962223141      -22.8560452598
 H       -17.5925104937        3.7445251791      -22.0596067489
 H       -14.5989112303        7.5869931203      -15.1254060206
 H       -15.3435337794        5.9682779472      -14.8533563399
 H       -15.8464986568        7.1484360714      -16.0982985462
 H       -12.5964652267        7.9258134981      -16.6273036171
 H       -13.9385820101        7.9795585870      -17.8268621903
 H       -12.5271755143        6.9504741772      -18.1604159452
 H       -15.6461841814        1.6723801017      -14.2258796671
 H       -15.7816749544        2.5507814528      -12.9286862422
 H       -16.1412871734        0.8756147136      -12.8644930980
 H       -14.5370362005        1.0458788520      -11.1687439502
 H       -12.6657678245        0.8832018609      -11.4383151308
 H       -13.8594791603       -0.4537470426      -11.7854642959
 H        -8.9087130587        0.8811380942      -17.6576635478
 H        -7.2933322189        1.5540111345      -16.9828010009
 H        -8.7903060892        2.6016571109      -17.0779073723
 H        -7.0314494272       -0.3700098336      -15.6222213181
 H        -8.4237031750       -1.1150888502      -16.2373857069
 H        -8.2733504763       -0.7486263873      -14.4947461534
 H        -9.6312793013        6.9324245233      -15.5473869390
 H        -8.1193614472        7.7116204389      -16.0992009465
 H        -8.8651475431        8.2828980132      -14.6465620284
 H        -6.7012462540        8.1864808762      -13.7899710866
 H        -6.0229340649        7.1967058943      -15.0830252635
 H        -5.9020949811        6.6830163175      -13.3969323366
 H        -8.1262648568        5.8955154921       -7.3430913282
 H        -7.0007037808        7.1833182113       -7.6525499158
 H        -6.6510214134        5.9553598376       -6.4541912843
 H        -4.6276961130        5.3488321676       -9.7925517261
 H        -4.4940494530        5.2276065950       -8.0369205439
 H        -5.0899712027        6.7705845261       -8.8128363253
 H        -6.6835286381       -2.8187382474       -8.1686963390
 H        -6.7516142695       -1.4028098011       -9.3126783989
 H        -7.5141535928       -1.3551683069       -7.6607932509
 H        -6.0121666074       -0.4280037345       -5.7030507853
 H        -4.4609605192       -0.9928609314       -5.6934118814
 H        -5.8788183709       -2.0759715942       -5.8332386093
 H         2.6405974416       -2.7541871086       -9.4054105308
 H         2.9871051543       -3.1416064481       -7.8451645037
 H         1.9679207838       -1.6280125553       -8.1904792253
 H         1.4919642378       -5.2387005534       -9.0152839577
 H         0.5841109684       -4.2192636237      -10.1931454385
 H        -0.2122578925       -5.0363923443       -8.9025181523
 H         5.2915610281       -4.9707555760       -2.5468965773
 H         4.1033322419       -5.8229442601       -1.6678838590
 H         3.5676579847       -4.5338122313       -2.7266681615
 H         5.1686264728       -6.3197060515       -5.6677210852
 H         6.0580490602       -5.2692357660       -4.6228975220
 H         4.6025444990       -4.6744019140       -5.2792232814
 H         6.6049697300      -12.0072283090       -1.2399374685
 H         5.3196106171      -12.0786824449        0.0627886683
 H         7.0796784184      -12.4157652056        0.3312447409
 H         6.8701917388       -9.0953096449        1.8527935099
 H         7.6354350018      -10.5562591438        2.0911806796
 H         6.0324612676      -10.5993980661        2.2351481677
 H        14.1917664544       -9.2407764056       -2.4074862842
 H        12.7398994771      -10.3280019398       -2.3287322662
 H        13.1831237833       -9.3391166904       -0.9583481496
 H        12.8391541893       -6.6844665248       -1.8923957357
 H        11.8949602820       -6.2906617328       -3.2995740935
 H        13.5318904063       -6.9180247277       -3.4999226890
 H         9.5758766906      -11.1606180613       -9.1385929815
 H        10.8562697663      -10.6137424742       -8.0954494518
 H        10.0321651046       -9.4965323543       -9.1327719263
 H         7.4648676063       -9.0065150594       -8.1447171328
 H         7.1950544887       -9.4535661913       -6.4947639370
 H         7.1105382848      -10.7015962002       -7.7769860383
 Na        8.2050288840       -9.0828030828       -3.7743293356
 Na      -10.5258003233        3.9774166551      -14.3636631214
