232

 C         9.9917469017      -12.4906134580       -6.2258696540
 C         9.2720149059      -11.2095090687       -5.9718209828
 O         8.5773895192      -11.0958506798       -4.9915922039
 C         9.2717393166       -9.9933809799       -7.0726731614
 C         9.9064376359       -8.6520518435       -6.3711331600
 O         9.2016438436       -8.1588474896       -5.5212856122
 C        11.3389024642       -8.0254055088       -6.6436518804
 C        12.0897364190       -7.7041712375       -5.3814402611
 C        12.0520198938       -8.9298297712       -4.4068617633
 O        11.9019900325      -10.1045866577       -4.6120285161
 C        12.2749360706       -8.4175310036       -2.8912459935
 C        10.7964096980       -8.4670625892       -2.2105278293
 O         9.9661685578       -7.8919709134       -2.8810764725
 C        10.6054430459       -9.2268190204       -0.9553466577
 C         9.2784279331       -9.1509338313       -0.1428791209
 C         8.1183784248       -9.9295393809       -0.8439689999
 O         8.1247228844      -10.2438598034       -2.0248861627
 C         6.8530199399      -10.3037515103        0.0440993619
 C         5.9148848846       -9.2503952622       -0.6855981253
 O         5.9543234223       -8.0663740791       -0.3193761266
 C         4.9654713792       -9.7760199045       -1.7969655878
 C         4.0471215343       -8.6871032115       -2.5234075523
 C         4.8471051970       -7.6724520805       -3.4065311188
 O         5.8141368233       -7.9962406806       -4.0597554646
 C         4.2681620587       -6.2381170841       -3.7431614322
 C         2.8777617342       -6.5277852619       -4.3163674045
 O         2.3378983619       -7.5823974789       -4.4767235607
 C         2.0860121802       -5.2120853941       -4.7480763509
 C         1.7320593073       -5.2630227263       -6.2208797740
 C         1.0720465394       -3.9787539232       -6.5223741684
 O         0.3876981628       -3.3987543874       -5.6505545564
 C         0.9518076876       -3.3842625294       -7.9983873100
 C        -0.2178460225       -2.3310252492       -8.0810457596
 O         0.0173464644       -1.1947067774       -8.3547548519
 C        -1.6756528735       -2.8536923695       -7.8656392851
 C        -2.7847342270       -1.7870846034       -7.7140215347
 C        -4.1892344843       -1.9852892600       -8.2880291483
 O        -4.3989902029       -2.7717889177       -9.1983296187
 C        -5.3925277759       -1.0757974836       -7.6397289724
 C        -5.0992736571        0.3807176330       -8.0865674700
 O        -4.1150479939        1.0365103846       -7.8426578660
 C        -6.1881582241        1.2552419735       -8.8611226064
 C        -5.8550152607        2.7499843617       -9.0739664450
 C        -6.9886070500        3.7146926371       -8.5039067103
 O        -8.0549385084        3.4375760396       -8.0136380121
 C        -6.6705241210        5.1885590203       -8.7452909153
 C        -7.1521629187        5.6867360248      -10.1662814139
 O        -6.5305168564        5.4134031198      -11.1804220925
 C        -8.5460419458        6.5231278608      -10.2395933717
 C        -8.4655600766        7.3699396788      -11.4829917391
 C        -8.7693519883        6.5141231062      -12.7483463780
 O        -9.7919333262        5.8372155541      -12.7283115102
 C        -7.9444959975        6.3795494590      -14.1405744622
 C        -7.8052027482        4.9481336775      -14.7240189058
 O        -8.5478121867        4.6939600029      -15.6670073534
 C        -6.6712378656        3.9587886368      -14.1360681216
 C        -6.8890899687        2.5729599698      -14.7417000045
 C        -8.3089120020        2.0498451463      -14.5408633190
 O        -8.9001294759        2.3043174892      -13.5211671680
 C        -8.8970076236        0.9182531586      -15.5491621051
 C       -10.3929526372        0.8238662729      -15.4066334466
 O       -11.0250702372        1.8301195490      -15.4646014665
 C       -11.1519930755       -0.5194755003      -15.1382880688
 C       -12.1465034432       -0.2526740747      -13.9914452511
 C       -13.3882482732        0.6735251687      -14.3152185678
 O       -13.9298764475        0.7771548871      -15.3634948865
 C       -13.9273392197        1.4677085140      -13.0570763104
 C       -13.0251251567        2.6497739871      -13.0851828826
 O       -11.8737374444        2.5952556009      -12.5830881009
 C       -13.5695873841        3.9306403258      -13.8071170143
 C       -13.7113133190        3.8164208376      -15.3474935381
 C       -13.1047542538        5.1068459840      -15.8631882983
 O       -11.9886102089        5.4668116526      -15.5789082344
 C       -13.9773728583        6.0374991265      -16.6945521312
 C       -14.7441350089        5.1648595296      -17.7659435744
 O       -15.9225994420        4.9046464700      -17.5716161876
 C       -14.0530758779        4.7879959259      -19.0747455573
 C       -14.7257247661        3.6340465121      -19.8887691156
 C       -15.0388080413        4.1606572674      -21.3006502660
 O       -14.8896688116        5.3292222906      -21.5548877734
 C       -15.7256809724        3.1190046854      -22.3127716646
 C       -14.5107519173        3.0532620410      -23.3851306656
 O       -13.8530002274        2.0690727877      -23.2507971178
 C       -14.1683177649        4.2819133499      -24.3856385882
 C       -16.0658721249        1.7151385867      -21.7000681773
 C       -17.0314355014        3.7813859866      -22.9195096090
 C       -15.0620542443        6.8132792169      -15.8996626913
 C       -13.0226966500        7.0227254872      -17.3615878437
 C       -15.4171200544        1.8345447555      -13.2776162109
 C       -13.7832283804        0.7288393971      -11.6401673253
 C        -8.6599172385        1.3877897980      -17.0219668902
 C        -8.1939342838       -0.3641660662      -15.2555745564
 C        -8.7089412595        7.1804518321      -15.2602834790
 C        -6.5190508465        6.9551721237      -13.8830166356
 C        -7.3607103450        5.9671777622       -7.5881858953
 C        -5.1816051896        5.4844098004       -8.6522535453
 C        -6.7774889605       -1.5548430323       -8.2441753499
 C        -5.3498037664       -1.0757506067       -6.0676210038
 C         2.3114101657       -2.7178957684       -8.3822331767
 C         0.6504597802       -4.6059749997       -8.9800269576
 C         4.0773675063       -5.3472134235       -2.4690484802
 C         5.0590257234       -5.4700564766       -4.8216773226
 C         6.4137577095      -11.8060837886       -0.0440805381
 C         7.0517920177       -9.9555114708        1.4591548848
 C        13.2908824013       -9.3312137446       -2.2917497161
 C        12.8541448166       -6.8888891584       -2.6623510776
 C        10.0486734190      -10.4734554376       -8.3426554874
 C         7.8645401831       -9.5106739907       -7.4423364857
 H         9.5901457591      -12.8859459404       -7.1730005680
 H         9.7817663621      -13.2586051708       -5.4345364905
 H        11.1514045415      -12.5355546491       -6.3518683736
 H        11.3709349928       -7.0281578424       -7.2736454525
 H        11.9838354580       -8.7726813165       -7.1095415920
 H        11.6270471753       -6.8337314338       -4.8271130618
 H        13.2108670819       -7.4570341724       -5.4775489695
 H        11.4501868100       -9.0870164648       -0.2184117197
 H        10.7059408333      -10.3050857703       -1.0916462852
 H         9.0707556980       -8.1018153738        0.1480044952
 H         9.5331427839       -9.6585618907        0.8039454612
 H         4.3523586885      -10.4683042635       -1.2213895877
 H         5.5713740355      -10.4648932317       -2.4445182454
 H         3.5150978417       -7.9779340741       -1.8043155575
 H         3.3092546543       -9.1389305123       -3.1473688197
 H         2.5786016226       -4.2327925344       -4.6012324761
 H         1.1096356152       -5.1153610383       -4.1891377374
 H         1.0873586859       -6.1724921941       -6.4243313453
 H         2.6486662589       -5.3575171091       -6.8609344505
 H        -1.7569284206       -3.6251264874       -7.0961487673
 H        -1.6713314605       -3.4785490847       -8.8664270940
 H        -2.4956278079       -0.7772517573       -8.0584600391
 H        -2.8861366751       -1.7372806311       -6.6501201246
 H        -7.1480097552        1.0730429183       -8.3701277683
 H        -6.3608351352        0.6922067914       -9.9054765142
 H        -5.6148139682        2.9379525621      -10.1612083468
 H        -4.9311357723        3.0565699168       -8.6120681002
 H        -8.8729517735        7.1217579945       -9.3774030152
 H        -9.3382663114        5.8551466918      -10.4108951564
 H        -7.4193635474        7.7689593726      -11.6481608813
 H        -9.0721365991        8.3515279091      -11.4204539913
 H        -6.6833676033        4.0654896784      -12.9864304377
 H        -5.6988027965        4.3225302363      -14.3941422937
 H        -6.2127840140        1.8468684078      -14.2995786535
 H        -6.7622600541        2.5991570044      -15.8413462353
 H       -10.4693472403       -1.2818471377      -14.8968722752
 H       -11.6981303365       -0.7120094703      -16.1224891289
 H       -11.6078474293        0.2167347403      -13.1560130229
 H       -12.7776781241       -1.1877336143      -13.6131838302
 H       -12.9549669486        4.7674468764      -13.3842590240
 H       -14.5851024098        4.2359404929      -13.4246601054
 H       -14.7355966999        3.7050251790      -15.5899476920
 H       -13.1331070109        3.0296933300      -15.7713366817
 H       -13.0358403794        4.5723822778      -18.7373275368
 H       -13.9422798818        5.6650689056      -19.6631298707
 H       -15.5887510175        3.3520920619      -19.3080651534
 H       -14.1236745298        2.7442849371      -19.9757156887
 H       -13.4542184062        4.0111895882      -25.2137676207
 H       -13.5708051903        5.0209149372      -23.8505608107
 H       -14.9166064958        4.8518297149      -24.9114214148
 H       -16.7688764774        2.0182286329      -20.9650523993
 H       -15.1353939529        1.1994871060      -21.4128819993
 H       -16.3555911735        1.1785016882      -22.5815795736
 H       -17.3789960676        3.1008883862      -23.6522624927
 H       -16.9384477045        4.7753295304      -23.4825285467
 H       -17.7162583816        3.9926377052      -22.0984283344
 H       -14.9207973678        6.9102614502      -14.8022717827
 H       -15.9964133639        6.3408426088      -16.1063580082
 H       -15.1439706198        7.8969497360      -16.1689598782
 H       -12.7700464814        7.7627492530      -16.6556984334
 H       -13.5966006522        7.5663926284      -18.1349390654
 H       -12.1066673216        6.5276592997      -17.6513002122
 H       -15.7461991034        2.2552525689      -14.2671595371
 H       -15.9124909709        2.5423012007      -12.5424103524
 H       -16.0832453168        0.9867111751      -13.1934083696
 H       -14.2712144935        1.2438207690      -10.8174961497
 H       -12.7202591395        0.5429425087      -11.5441156672
 H       -14.2987321924       -0.1666651605      -11.7710114395
 H        -9.2825238605        0.9168519777      -17.6378370200
 H        -7.5975930531        1.3075324912      -17.2826268632
 H        -8.9700173191        2.4258235248      -17.0018267879
 H        -7.1248891978       -0.2771784851      -15.4636076326
 H        -8.4972652285       -1.0592039099      -16.0258095841
 H        -8.2566632182       -0.7616704220      -14.1894467408
 H        -9.5644655147        6.6481560225      -15.5104618663
 H        -8.0982599466        7.2800793431      -16.1481908968
 H        -8.9776678963        8.2226924627      -15.0363017300
 H        -6.6451898234        7.9883465354      -13.6138866739
 H        -5.8387000639        6.8538964366      -14.7209780719
 H        -6.1582364759        6.4074129133      -13.0255576823
 H        -8.4272151401        5.6402098623       -7.3672368549
 H        -7.2462099948        7.0099050115       -7.6367086944
 H        -6.7527984373        5.6653829820       -6.7014532997
 H        -4.6953475820        4.9619717562       -9.4486894868
 H        -4.7104498880        5.1655988880       -7.6817931794
 H        -5.0425820893        6.5585740573       -8.8448328642
 H        -7.2089009302       -2.2664975222       -7.5355850978
 H        -6.6260806584       -1.9743865757       -9.1975124762
 H        -7.4888879641       -0.7240258305       -8.2173453722
 H        -6.1688918817       -0.5060958474       -5.6246102459
 H        -4.3389439288       -0.6143996736       -5.7915259994
 H        -5.3824315166       -2.0577445377       -5.5968378709
 H         2.2247679624       -2.2793921767       -9.3522729566
 H         2.9951675706       -3.5815826714       -8.6195358968
 H         2.5826416775       -1.9235678471       -7.7331503142
 H         1.3105328260       -5.4872496986       -8.7777610370
 H         0.7783454057       -4.2472688677       -9.9846616527
 H        -0.4437414996       -4.9647060758       -8.9029865720
 H         4.9748396662       -5.3498144008       -1.8192763026
 H         3.2524934113       -5.7592772487       -1.8478323004
 H         3.7620256027       -4.3525374666       -2.7458331288
 H         4.8956178288       -5.8631160988       -5.8286418123
 H         6.0845307785       -5.6817862866       -4.5711248242
 H         4.9814132995       -4.4306310388       -4.6123294558
 H         7.1440867714      -12.2522980926       -0.8013391870
 H         5.3356952919      -11.8055769130       -0.1898690019
 H         6.6055103240      -12.3169316049        0.8449398208
 H         7.4459064948       -8.9524843394        1.6128951733
 H         7.7350240499      -10.6632922927        2.0251109844
 H         6.1885289888      -10.0975562739        2.1258602457
 H        14.1325996777       -9.2824936003       -2.9093518918
 H        13.0132328648      -10.3525582239       -1.9627677894
 H        13.5848278332       -8.9304338247       -1.3392855370
 H        13.1923726500       -6.8076867025       -1.6236281278
 H        12.1200617000       -6.0863679133       -2.9165779976
 H        13.7452862056       -6.7446716642       -3.2714080475
 H         9.3511350814      -11.2094529938       -8.7755529513
 H        11.0595440305      -10.9161430232       -8.2641228251
 H        10.0471132319       -9.6751049853       -9.0721657993
 H         7.9413187635       -8.7118381002       -8.2185644579
 H         7.2832711688       -9.0801987974       -6.6011844275
 H         7.2468952425      -10.3051540697       -7.8793936943
 Na        7.7106780636       -8.8970240548       -3.7778779722
 Na      -10.5754439493        4.0327268909      -14.1785505734
