232

 C       -19.2490748439       -8.9705692204       -0.8885784586
 C       -18.6355274989      -10.3739240678       -1.2235501432
 O       -18.2785758363      -10.6636102430       -2.3286886536
 C       -18.4723132135      -11.4375674670       -0.0607968284
 C       -16.9234343925      -11.5448522630        0.2789158147
 O       -16.3057289624      -12.3254634541       -0.4206847883
 C       -16.3051496611      -10.8749774169        1.5157581933
 C       -14.8432788623      -10.5547352224        1.0711821848
 C       -14.8144699183       -9.3995033795        0.0510820278
 O       -15.8021245727       -8.8097941823       -0.2673888795
 C       -13.3930588556       -9.2113207947       -0.7595735575
 C       -13.5755883044      -10.1688150820       -2.0185210747
 O       -14.1335938990      -11.2363799456       -1.8311975574
 C       -13.2580467292       -9.6735899152       -3.4048053866
 C       -13.3099167343      -10.7870921454       -4.5390018173
 C       -14.6144353904      -10.6156113706       -5.3908018915
 O       -15.6340079113      -10.8646395569       -4.7560303825
 C       -14.7844074296      -10.0776967882       -6.8760831729
 C       -14.2966576486       -8.5980214448       -6.9378928971
 O       -13.4244712857       -8.3676880194       -6.1543599937
 C       -14.7761037062       -7.5214217014       -7.9648165051
 C       -13.7449425892       -6.4033860981       -8.1649573572
 C       -14.1936378690       -5.2125180432       -9.0445600923
 O       -14.9288610745       -4.3845813129       -8.5425578157
 C       -13.5909317023       -5.2403967032      -10.3926445588
 C       -12.0665188649       -4.6975638257      -10.2208437076
 O       -11.2577453361       -5.4947428159       -9.7446027774
 C       -11.5773557078       -3.3756852937      -10.7341498246
 C       -10.3320593746       -2.7869374444      -10.0328702942
 C       -10.2793141890       -1.2712466354      -10.5684849781
 O       -10.8510249640       -0.9577904260      -11.5497200647
 C        -9.3512418792       -0.2714130924       -9.8824022408
 C        -7.9108077840       -0.5399649710      -10.5115597315
 O        -7.5465232698       -1.6969113403      -10.5762191308
 C        -6.9677638072        0.6198573866      -10.7438161414
 C        -5.4865314578        0.0880725621      -10.9319157959
 C        -4.5019940424        1.0869252968      -11.4002465809
 O        -4.5921667045        2.2723799602      -11.0665270547
 C        -3.2474756578        0.7544282171      -12.1276416217
 C        -2.2701410722        0.1480642256      -11.1280074511
 O        -2.2276585875       -1.0685459682      -11.0553179706
 C        -1.4868737089        1.0433492819      -10.1210452630
 C        -0.2231512371        0.3141828841       -9.4407889113
 C        -0.0746864626        0.4449374508       -7.8908415320
 O        -0.8921850344        1.0206677959       -7.2547053628
 C         1.3346815818       -0.0272716574       -7.2158257243
 C         2.4555092544        0.6887291779       -7.9035094926
 O         3.2345122360        0.1730029762       -8.7288114591
 C         2.7227842072        2.1816032168       -7.4586545851
 C         3.8847991012        2.7058833672       -8.2535004603
 C         3.7367594644        3.0746020627       -9.7019295641
 O         2.9220018316        2.5419918342      -10.5009503537
 C         4.6327284946        4.3333913964      -10.1130005930
 C         4.5828389005        4.4662728095      -11.8263333408
 O         5.4669970637        3.8714701050      -12.3872851310
 C         3.3558141311        5.2317244498      -12.4980660409
 C         3.7331312375        6.6992650340      -12.8607970159
 C         4.7356171296        6.7397972954      -14.0178497878
 O         5.4109595375        5.8020679277      -14.2737174442
 C         4.7842077898        8.0287316325      -14.8735824045
 C         5.8377115996        7.7590903158      -15.9209759829
 O         5.5008097274        7.5179668615      -17.0640958216
 C         7.3006635059        8.1009916889      -15.7928281313
 C         8.1900211299        7.3776075509      -16.6761304829
 C         7.9041744649        5.8243300636      -16.8011772868
 O         7.6825705433        5.1989166012      -15.7855762836
 C         7.9071098003        5.0940691029      -18.2041125267
 C         9.1603337004        4.1986291131      -18.1101628882
 O         9.8478864785        4.3215151010      -17.1013809746
 C         9.4552066188        3.1192863363      -19.1012404433
 C        10.3684984618        2.1323987783      -18.3093570738
 C         9.7644630900        0.8277579046      -17.7641827084
 O         8.5774638894        0.7215206692      -17.5071137828
 C        10.7944068260       -0.2290182510      -17.1032885093
 C        10.4345512078       -0.1724284410      -15.5656165778
 O        11.2170646416        0.4310116942      -14.8507063783
 C         9.1380054779       -0.8181093641      -15.0176633858
 C         8.6430160561       -0.0968100507      -13.7698484401
 C         7.3192423220        0.6686341890      -14.1574379535
 O         7.4378958318        1.8704902645      -14.1007592657
 C         5.9490441885        0.0216226803      -14.5975653969
 C         5.5094655155        0.7040411549      -16.0498462441
 O         5.1620841009        1.8817651402      -15.9559530887
 C         5.2687791152       -0.0976247677      -17.2611799315
 C         6.0677979169       -1.5333632161      -14.7298410395
 C         4.8671359311        0.3693342301      -13.5488340677
 C        10.4300035662       -1.6010891723      -17.6283089343
 C        12.1908584062        0.1818655497      -17.3875739755
 C         6.6132483096        4.2753483917      -18.2273541680
 C         8.0509995232        5.9946192225      -19.4268139829
 C         3.3807704599        8.0726819583      -15.7032563258
 C         5.0923915066        9.3419450092      -14.1067904921
 C         3.9866387353        5.6438143663       -9.6604913022
 C         6.0593534887        4.1426707789       -9.5657418257
 C         1.2806560740        0.2290436166       -5.7182139018
 C         1.3897565548       -1.5242503005       -7.4939137371
 C        -3.4621751531       -0.2804855130      -13.3347145372
 C        -2.6618475057        1.9901594847      -12.7126202612
 C        -9.8282986358        1.1345834638      -10.1842810480
 C        -9.2813812716       -0.4524207869       -8.3678506694
 C       -13.5442754508       -6.6997860592      -10.9704480579
 C       -14.5441686410       -4.3039605678      -11.3731120881
 C       -13.9461422887      -10.8386524428       -7.9072118191
 C       -16.2408933033      -10.2287239377       -7.3617648939
 C       -13.3075370663       -7.6875963787       -1.1391995058
 C       -12.1071781938       -9.5816183782        0.0246699301
 C       -19.3195896340      -11.1803603314        1.2027924862
 C       -18.8620533940      -12.8218497779       -0.6425265688
 H       -18.8519398782       -8.5634187565        0.0174303825
 H       -20.3252117830       -9.1825933768       -0.8558930569
 H       -19.1279623835       -8.2870555913       -1.7261154037
 H       -16.3923951322      -11.6327818159        2.3024487239
 H       -16.8656469838       -9.9490648741        1.7172520403
 H       -14.3647090308      -11.3720713650        0.5931350270
 H       -14.2534483681      -10.2185946016        1.9325716686
 H       -12.2469654679       -9.2476918215       -3.3567623444
 H       -13.9053999358       -8.8614899955       -3.6471538281
 H       -13.3323011221      -11.8460655306       -4.1014989562
 H       -12.2777341961      -10.8267328842       -5.0935288272
 H       -15.7322365867       -7.0571816251       -7.6588358944
 H       -15.0213696345       -8.0108926329       -8.9497162694
 H       -12.8112218460       -6.7590818182       -8.4432726434
 H       -13.6726157976       -5.9009779102       -7.1713554176
 H       -12.1956955471       -2.5145105466      -10.6608887460
 H       -11.1891050165       -3.5799605275      -11.7828831703
 H        -9.4513443488       -3.3716076168      -10.3367595246
 H       -10.4163236623       -2.8267313445       -8.9561577293
 H        -7.0951831805        1.3638257065       -9.9226748047
 H        -7.0426547475        1.2790622813      -11.6091605848
 H        -5.5172390649       -0.8199234079      -11.4993631664
 H        -5.1125269811       -0.0657891136       -9.8186821548
 H        -2.0833021669        1.2868090474       -9.2116051399
 H        -1.1696480764        1.9696397116      -10.6215690598
 H         0.4630500817        0.8002671705       -9.9974046709
 H        -0.1461167576       -0.7777327850       -9.7343524426
 H         2.8956609548        2.1971367932       -6.4227788993
 H         1.9116283736        2.9159360515       -7.6266945491
 H         4.7041981426        1.9987259604       -8.0823040098
 H         4.1449930671        3.6978628482       -7.7879704132
 H         2.6995952428        5.2937387712      -11.5895322971
 H         2.9998268047        4.5361210348      -13.2844093630
 H         4.1840071395        7.1915702779      -11.9860939099
 H         2.8410845092        7.2712138420      -13.0765911084
 H         7.6790533079        7.8952941445      -14.7754831399
 H         7.3327089624        9.1827284550      -15.9652075045
 H         9.2246994779        7.5319150967      -16.3486207513
 H         8.0965052534        7.9248299765      -17.7656430891
 H        10.1414860886        3.5004825111      -19.8699635364
 H         8.5845593101        2.6751778293      -19.4964245915
 H        10.8759413141        2.5464908055      -17.5056054676
 H        11.1514709131        1.7469069678      -19.0000149693
 H         9.2858302287       -1.8688468251      -14.8487568803
 H         8.3760288350       -0.7708410460      -15.8555113980
 H         9.4090458690        0.5197437193      -13.3064766572
 H         8.5666721616       -0.8370960858      -12.9762924129
 H         6.1754457623       -0.5355168770      -17.7827837407
 H         4.6844655854        0.5202075778      -17.8611862554
 H         4.6045416669       -1.0217604632      -17.0332260744
 H         5.1158082225       -2.0974804438      -14.4916595138
 H         6.9508453672       -1.9497431610      -14.2974724462
 H         6.3731549424       -1.7122662389      -15.7951414557
 H         4.0124842246       -0.2980857415      -13.7565256193
 H         4.6792627046        1.4586022579      -13.7019799650
 H         5.3790535391        0.0680606395      -12.5917188531
 H        10.8711034441       -1.9329527194      -18.5530036166
 H         9.4013596524       -1.7756240878      -17.7825903696
 H        10.6189910763       -2.4215493705      -16.9106178043
 H        12.3227297236        0.2501670723      -18.4474809544
 H        12.7905399134       -0.5717812656      -16.8950060415
 H        12.5209799894        1.1343103052      -17.0452573590
 H         6.9550182919        3.2561401713      -17.9957912046
 H         6.2869958023        4.2036833461      -19.1867313015
 H         5.8703721788        4.6971794366      -17.6161060768
 H         8.6954438195        6.7678273826      -19.1960689406
 H         6.9608910897        6.3513771305      -19.6738766381
 H         8.4451504883        5.4874119715      -20.2797022948
 H         2.5494138853        8.0450368310      -15.0025711209
 H         3.4152797110        7.3222184305      -16.5677332670
 H         3.2872656486        9.0313912034      -16.2304393566
 H         4.8696179632       10.1918074889      -14.7733626783
 H         6.1390654667        9.4996377217      -13.7434099942
 H         4.5153040738        9.4357461195      -13.1263977672
 H         4.1678773700        5.9028286209       -8.5715166557
 H         2.9649844394        5.7388233013       -9.8013532541
 H         4.4387569871        6.4861086120      -10.2172663262
 H         6.5762121945        5.0715270579       -9.5488955380
 H         6.6375850209        3.3654880029      -10.0697469708
 H         5.9226535718        3.8737990569       -8.5695194612
 H         1.3389204869        1.2508397536       -5.4695274772
 H         2.1264299391       -0.2350122338       -5.2652449044
 H         0.4152934020       -0.2010382096       -5.2457050444
 H         0.7235452602       -1.8305740548       -6.6844582157
 H         2.3656773454       -1.9068544299       -7.3191530201
 H         1.1701454611       -1.9055582063       -8.4642542353
 H        -4.3363105075       -0.8610649412      -13.1161343001
 H        -2.7252421040       -1.0684750919      -13.2672938861
 H        -3.5037366587        0.1638925747      -14.3137004151
 H        -1.7446796411        1.7765595732      -13.2064125060
 H        -2.5738976286        2.7774418271      -12.0099143849
 H        -3.3912866029        2.4049186833      -13.4336184495
 H       -10.7313850596        1.1972369659       -9.6868718416
 H        -9.9995843516        1.4469747422      -11.2410223191
 H        -9.2112348397        1.9418709515       -9.8271574316
 H       -10.3447795452       -0.3528339590       -8.0305907252
 H        -8.7210192215        0.3534985303       -7.9064609528
 H        -8.9955415317       -1.4707578600       -8.2306847867
 H       -13.2780609880       -6.7183707914      -12.0035502313
 H       -14.5330111747       -7.0979694251      -10.9844447449
 H       -13.0379879811       -7.4197592619      -10.3692279011
 H       -15.5833376108       -4.6814370205      -11.3440269230
 H       -14.3032936049       -4.1208487565      -12.4452022331
 H       -14.6268357058       -3.3171146655      -10.9025244285
 H       -12.9007655600      -10.6009148296       -7.8528116602
 H       -14.3035220096      -10.6611695243       -8.9114691949
 H       -13.9281267417      -11.9156807529       -7.6200526089
 H       -17.0917774105       -9.8486800885       -6.7608543682
 H       -16.4973969131      -11.2850337882       -7.5430542330
 H       -16.5114127696       -9.8913239770       -8.3488307879
 H       -14.1207404633       -7.4310254571       -1.8873970707
 H       -12.3586146732       -7.3966895609       -1.5651564411
 H       -13.4622110247       -7.0648811941       -0.2733608474
 H       -12.3327732603      -10.5160895340        0.5645553147
 H       -11.9773535919       -8.7916164853        0.7618351670
 H       -11.2728953079       -9.6015754170       -0.5823389809
 H       -18.9638087680      -10.3687140303        1.7989079969
 H       -19.5010350423      -12.0370710701        1.7801397925
 H       -20.3520354974      -10.9762984696        0.9009659753
 H       -18.2377382596      -13.6188171637       -0.3248021178
 H       -18.9508242790      -12.7970739747       -1.7444853755
 H       -19.8912778313      -12.9618874338       -0.2637981042
 Na      -16.4047252569      -11.6920931431       -2.8249740639
 Na        6.1008370897        3.6334738632      -14.6599977402
