232

 C         9.8624741741      -12.3617771480       -6.0884316881
 C         9.0927998099      -11.1002580277       -5.8741320722
 O         8.1352449099      -11.0365381080       -5.0991298297
 C         9.3101446426      -10.0046602024       -6.9029901681
 C         9.9429356961       -8.6926370143       -6.1804402589
 O         9.2303087178       -8.1066168985       -5.4055227407
 C        11.2847918281       -8.2458432060       -6.6550729132
 C        12.0490159114       -7.4306281873       -5.5323163529
 C        12.3335571568       -8.6315019627       -4.4563954514
 O        12.3607879523       -9.8032821723       -4.7997829929
 C        12.3966047410       -8.3820244906       -2.9366559864
 C        11.0099866481       -8.6546051483       -2.4447298027
 O        10.0608832241       -8.0494456321       -2.9216371599
 C        10.8055400732       -9.5853425611       -1.2163032494
 C         9.5504622920       -9.2769854055       -0.3507480169
 C         8.2831900427       -9.8760214161       -0.9593176798
 O         8.1135278322      -10.2910358832       -2.1011058710
 C         6.9741997425      -10.0722743592        0.0010411649
 C         5.9218494641       -9.1785418362       -0.8217061560
 O         5.8939994831       -8.0176252586       -0.5912551665
 C         5.0573034470       -9.8240497728       -1.9139491097
 C         4.1101159840       -8.7660594196       -2.3468770364
 C         4.8504689508       -7.7697161066       -3.2563680698
 O         5.8198328013       -8.0588036599       -3.9404820521
 C         4.2899063933       -6.3409307585       -3.4325249171
 C         2.8630113261       -6.5297407335       -4.3225294876
 O         2.4654903529       -7.6911431202       -4.5406144975
 C         2.1573072847       -5.3325219082       -4.7535936800
 C         1.6700466730       -5.3391320667       -6.2312503634
 C         0.7103964755       -4.0246285393       -6.5068440804
 O         0.2471733075       -3.4204893659       -5.5689316775
 C         0.7491492939       -3.5410612376       -7.9864070384
 C        -0.3599527834       -2.3739721089       -8.0971646294
 O        -0.0711266070       -1.1896925159       -8.1541270224
 C        -1.8386766910       -2.7739927017       -8.2088650816
 C        -2.7071175578       -1.6225991001       -7.6509549516
 C        -4.0625833840       -1.7809578619       -8.3454198121
 O        -4.2410940851       -2.6068685587       -9.2128113585
 C        -5.3260962166       -1.0476107001       -7.6379907272
 C        -5.2058248311        0.4856385630       -8.0804292356
 O        -4.1302056736        0.9791461835       -7.7956818788
 C        -6.2016636385        1.2043441619       -8.9081900266
 C        -5.7972171478        2.6347217811       -9.1212377150
 C        -6.9843019457        3.5696981804       -8.6635237570
 O        -8.0890358603        3.1305153618       -8.4146092062
 C        -6.7941715740        5.2399908007       -8.7334273161
 C        -7.1264766022        5.7505785283      -10.2298992527
 O        -6.5649956857        5.2085434756      -11.1832198050
 C        -8.3754095073        6.7484263686      -10.2774087677
 C        -8.4683898703        7.4137578929      -11.6739802964
 C        -8.9188904987        6.3174716962      -12.7819003305
 O       -10.0141477020        5.8105272451      -12.7796269053
 C        -7.9612420671        6.3734100879      -14.1055948295
 C        -7.8811934447        4.9579877081      -14.7684111245
 O        -8.7920826838        4.5779615994      -15.4737579986
 C        -6.7470051913        4.0108044398      -14.3579013243
 C        -6.9032642431        2.6871993008      -15.0493661441
 C        -8.3696359007        2.1297967222      -14.7338588710
 O        -8.8202503878        2.3294741483      -13.6098892761
 C        -8.9657295490        0.9224841917      -15.5901622134
 C       -10.4892142885        0.9123147221      -15.1717361968
 O       -11.1188860615        2.0195628546      -15.1520256384
 C       -11.2765407962       -0.3780435524      -15.0483923699
 C       -12.1514987464       -0.3553333186      -13.8130696259
 C       -13.3876278710        0.5354303643      -14.1240633240
 O       -13.8184003590        0.6109442831      -15.2723720117
 C       -14.0432087998        1.3761328135      -12.9060547042
 C       -13.1016110890        2.7919054787      -12.9005855849
 O       -11.9824752626        2.6960149501      -12.4898690408
 C       -13.5804879044        4.1016762537      -13.5278637185
 C       -13.6571130804        3.9490094070      -15.0611077287
 C       -13.0115465187        5.1344071529      -15.8804577471
 O       -11.8381185118        5.5074083539      -15.7083801347
 C       -13.8782734938        6.0762006551      -16.8420520316
 C       -14.7414313375        5.2254187386      -17.9112782437
 O       -15.8253260068        4.8162295745      -17.7487073079
 C       -13.8940507600        4.7652163851      -19.0977656427
 C       -14.5834763244        3.8368078957      -20.0903036722
 C       -15.1260147918        4.3564886184      -21.3936313000
 O       -14.8050833246        5.4640005628      -21.8066373061
 C       -15.8557527148        3.2462646227      -22.2892010362
 C       -14.5115762566        3.0480013920      -23.3847521857
 O       -13.8250242674        2.0933091967      -23.1020160240
 C       -14.4841377763        3.9920283736      -24.5108750866
 C       -16.2158243942        1.9656096403      -21.4351038423
 C       -17.0664496292        3.8142707855      -23.0300514729
 C       -14.8396212010        6.8305227628      -15.9712998400
 C       -13.0048501978        6.9931709781      -17.6525143379
 C       -15.5519149819        1.6624753796      -13.2731220387
 C       -13.9341933502        0.6280249142      -11.5494546683
 C        -8.8097469076        1.1451949371      -17.0442980725
 C        -8.1653928221       -0.3787064479      -15.1835697429
 C        -8.6704831464        7.4810681756      -14.9276278896
 C        -6.5379226737        6.9239419800      -13.7917039867
 C        -7.5562728076        6.0478514533       -7.6376760094
 C        -5.2475265505        5.4791141739       -8.5123071863
 C        -6.5961566829       -1.8105119433       -8.1192266795
 C        -5.3579171041       -1.0071601555       -6.0900888957
 C         2.1782213823       -2.8605537643       -8.1976997116
 C         0.5243731264       -4.7037188788       -9.0258472009
 C         4.0890055184       -5.6228817755       -2.0559998207
 C         5.2459414411       -5.5292458478       -4.4403226788
 C         6.5694512899      -11.5890061522       -0.1794124342
 C         7.1132888615       -9.5302843777        1.4304492627
 C        13.3302825783       -9.4863552708       -2.2557366516
 C        12.8854746381       -6.9845035157       -2.4699716475
 C        10.2987768094      -10.3183852205       -8.0459843416
 C         7.8871667259       -9.6571559381       -7.5287553562
 H         9.5470162751      -13.0437029305       -6.8858754157
 H         9.9855246977      -12.9970145776       -5.2189228040
 H        10.7794808721      -12.0370056072       -6.4061800263
 H        11.2929938076       -7.6773717844       -7.4904626727
 H        11.8810008324       -9.1318932818       -6.7380296070
 H        11.5002452615       -6.6127063053       -5.1429697374
 H        12.9787939204       -7.0536526990       -5.8646105081
 H        11.6467221700       -9.7556497553       -0.5537416185
 H        10.5596918094      -10.6584982550       -1.4752473019
 H         9.3957205468       -8.2150622276       -0.1063037355
 H         9.6932871944       -9.7613558462        0.6329474021
 H         4.5058277595      -10.6711756129       -1.4931657967
 H         5.6805247837      -10.2357066151       -2.6613337185
 H         3.5287581950       -8.2477094327       -1.6351677814
 H         3.3270915151       -9.3097050662       -2.9868978115
 H         2.7904253356       -4.4299884778       -4.5502174153
 H         1.2994042200       -5.1581015805       -4.1276035812
 H         1.1021877009       -6.2372599140       -6.3189626218
 H         2.4634410874       -5.4163537616       -6.9529544942
 H        -1.8643562650       -3.6901031421       -7.6238585478
 H        -2.0426837484       -3.1490167806       -9.1141111388
 H        -2.1991489626       -0.6597581476       -7.8248802185
 H        -2.8712813909       -1.7373188495       -6.5360002612
 H        -7.1211450323        1.0711831867       -8.3714569805
 H        -6.4164492095        0.6435625682       -9.7326109988
 H        -5.7990992757        2.7951175588      -10.1894041293
 H        -4.7635791824        2.9469883212       -8.8218129270
 H        -8.2157334379        7.5443357509       -9.5349839721
 H        -9.2382283966        6.0499331201       -9.8674830692
 H        -7.5474951163        7.9341241674      -11.7998698008
 H        -9.2088448060        8.1473055331      -11.7672354081
 H        -6.5169093576        4.0596790012      -13.3229391857
 H        -5.8771910187        4.6052431167      -14.8473978180
 H        -6.0894519630        1.9707546286      -14.7514932180
 H        -6.9473986113        2.8453233122      -16.1340135020
 H       -10.5354711898       -1.2509261739      -14.9791349273
 H       -11.9292421507       -0.4958492015      -15.8696915155
 H       -11.7075345193        0.1192722909      -12.9279445843
 H       -12.4607251924       -1.2958288583      -13.5791227960
 H       -12.8340438526        4.8289389872      -13.2571707300
 H       -14.4700169862        4.3753980015      -13.0118500366
 H       -14.6857936486        3.8502684956      -15.5093930380
 H       -13.0132738026        3.0716930194      -15.3815432541
 H       -12.9467138754        4.3881919338      -18.6526694211
 H       -13.5490475108        5.6976232304      -19.6691505891
 H       -15.4900177772        3.4269887447      -19.5341309571
 H       -13.9753704423        2.9127294451      -20.3209722916
 H       -13.6794352342        4.0847149429      -25.1207939750
 H       -14.7403254526        5.0283809335      -24.2163486812
 H       -15.2858550372        3.6032664147      -25.2033880603
 H       -16.7239481031        2.2986602082      -20.5405242909
 H       -15.2371678275        1.5830703456      -21.2840625448
 H       -16.6711494411        1.4129119201      -22.2211702927
 H       -17.2794525837        3.1242357822      -23.8526138660
 H       -16.8705124086        4.7660762300      -23.4628805568
 H       -17.9403295179        3.8902049517      -22.4465137832
 H       -15.1706505901        6.2886119766      -15.0920110097
 H       -15.7489093964        7.2707708076      -16.4622975965
 H       -14.3222947323        7.6431390345      -15.4761083476
 H       -12.3360058925        7.6333998189      -17.0353043701
 H       -13.6314462448        7.6573127207      -18.1792740354
 H       -12.3205862600        6.3627339454      -18.1997839224
 H       -15.7719334089        2.4894370494      -13.9115226141
 H       -16.2092041684        1.7901532817      -12.4660715725
 H       -16.0846697192        0.8350906710      -13.7383749457
 H       -14.1814948631        1.3344068047      -10.7750179643
 H       -12.8663268038        0.4009737253      -11.3846326560
 H       -14.6763081926       -0.2530419622      -11.5283784794
 H        -9.2394775504        0.2090042153      -17.6151384274
 H        -7.7458797322        1.1025880047      -17.0753988105
 H        -9.2435543704        2.0644501243      -17.4009092908
 H        -7.0742666247       -0.2010934244      -15.1979044782
 H        -8.3656325771       -1.2383059489      -15.8723058836
 H        -8.3542103820       -0.5994991473      -14.1874898189
 H        -9.8017631971        7.4302732781      -14.7084968968
 H        -8.5296747013        7.4583951680      -16.0063405700
 H        -8.3516004064        8.4347218099      -14.6365833314
 H        -6.5896879758        8.0284510757      -13.6367755883
 H        -6.0206707720        6.7664500613      -14.7551564917
 H        -5.9803998453        6.4007990535      -12.9574210926
 H        -8.6152421099        6.0223713330       -7.7956235730
 H        -7.1017840229        7.0814225896       -7.6970453890
 H        -7.4449405611        5.7063945633       -6.6231994839
 H        -4.6856995603        5.1534746331       -9.4008461586
 H        -4.9501107580        4.9728895708       -7.5873281990
 H        -5.0152347721        6.4967355058       -8.2695067543
 H        -6.6027313397       -2.8531630921       -7.8954692012
 H        -6.6608062743       -1.6205507303       -9.2348731055
 H        -7.4217725968       -1.3519726701       -7.5806677050
 H        -6.5007852111       -0.9123647897       -5.9049772092
 H        -4.8539197918       -0.1643263210       -5.6595760945
 H        -4.9580596417       -1.8607395659       -5.5154217784
 H         2.0419711533       -1.8724740343       -8.7029130223
 H         2.8388061247       -3.4503922387       -8.7696898446
 H         2.5074559574       -2.5914233478       -7.1726664259
 H         1.4853811996       -5.0901372528       -9.3149823684
 H         0.0726270354       -4.2148312371       -9.9302653653
 H        -0.0344996050       -5.5095853749       -8.6648517448
 H         4.7598875703       -6.0925095627       -1.3914451925
 H         3.0591229138       -5.6646838391       -1.6570237275
 H         4.2994189687       -4.5652355409       -2.1562859267
 H         5.1582476863       -6.1154243633       -5.3722075550
 H         6.3235687612       -5.3598976108       -4.1812076575
 H         4.7372594257       -4.5010446174       -4.4885377762
 H         6.6365155632      -11.8821093460       -1.1905638323
 H         5.6299719937      -11.5915052263        0.3372751668
 H         7.3103967829      -12.1892293131        0.4102644011
 H         7.0681969418       -8.4402729871        1.4910908254
 H         7.9046684896       -9.8377124606        2.0484493649
 H         6.2602645150       -9.8519092166        2.0221343845
 H        14.3743804715       -9.3068409417       -2.6293812801
 H        12.9888002213      -10.4615928876       -2.3960276558
 H        13.2552848537       -9.5302720184       -1.1739679286
 H        12.9037879484       -6.9103003934       -1.3769088168
 H        12.3254600349       -6.1768828598       -2.9382982243
 H        13.9342818585       -6.8724753134       -2.7805432717
 H         9.9512977592      -11.1431263420       -8.6797919231
 H        11.3414178179      -10.5047786091       -7.7835045187
 H        10.2610565006       -9.3696057347       -8.6487654881
 H         7.9209516379       -8.7319468577       -8.0687467389
 H         7.1324196972       -9.5252611848       -6.7711952286
 H         7.5218115454      -10.4191855168       -8.1799168055
 Na        7.8870790394       -9.0530899289       -4.1119203959
 Na      -10.6236176721        4.0806522254      -14.0657000603
