232

 C         9.8770982928      -12.2218248657       -5.8569459715
 C         9.1889988208      -10.9787332720       -6.2119054367
 O         8.2167393337      -10.6658796889       -5.5220666309
 C         9.5851804599      -10.0010739420       -7.4177256989
 C        10.0218565019       -8.6528522660       -6.6368379500
 O         9.1710431034       -8.0379874743       -6.0566233166
 C        11.4372647231       -8.1076366762       -6.7611432495
 C        11.9000292256       -7.5751890498       -5.3410841186
 C        12.7666894285       -8.5867680129       -4.6068033037
 O        13.5205202482       -9.2799021309       -5.2294011856
 C        12.7462745633       -8.6189284886       -3.0758975193
 C        11.3262579503       -9.0977053658       -2.7064186350
 O        10.3279582655       -8.4743059305       -3.0037883090
 C        11.0915920544      -10.3272509158       -1.5453633354
 C        10.1267374886       -9.8457317265       -0.4585034161
 C         8.6371447037      -10.1186633291       -0.8572063777
 O         8.3887575719      -10.7715273701       -1.8632581009
 C         7.3827307771       -9.7384794171        0.0076909936
 C         6.3403252511       -9.1082205430       -0.9462140513
 O         6.1694699271       -7.8741360396       -0.8879351534
 C         5.8262997221       -9.9237878400       -2.1309661318
 C         4.6841545492       -9.0787470156       -2.7458368945
 C         5.1037481635       -7.6159854980       -3.1535379123
 O         6.1539944711       -7.5004554644       -3.7961483540
 C         4.0665718537       -6.4174678939       -3.0316824102
 C         3.1540662812       -6.5786249458       -4.2750227877
 O         3.0211342083       -7.6551440625       -4.8092202512
 C         2.0760146917       -5.4278558983       -4.6640604662
 C         1.2780213605       -5.6531204895       -6.0393396766
 C         0.3711397906       -4.5361670373       -6.3653509399
 O        -0.4425407002       -4.1372366366       -5.5200228882
 C         0.5736988616       -3.7528238097       -7.7972792122
 C        -0.3144729181       -2.5302616858       -7.7700227001
 O         0.0376647925       -1.3990026020       -7.4902328147
 C        -1.8474327385       -2.7668121657       -8.3227988055
 C        -2.7450055341       -1.6394398294       -7.7100199620
 C        -4.1342079691       -1.6068771328       -8.3057467880
 O        -4.2747373601       -2.1015033826       -9.4281292208
 C        -5.3338054636       -0.8905995188       -7.5948092274
 C        -5.3175678865        0.5462321974       -7.9991938442
 O        -4.6240725129        1.2921288094       -7.3654281326
 C        -6.1535388525        1.0363078334       -9.2655489658
 C        -5.9592939209        2.4843117670       -9.6084214227
 C        -7.1728826771        3.3535819533       -9.2176406968
 O        -8.2201978539        2.7907100938       -9.1317896767
 C        -7.0734685433        4.9515967039       -8.8583474474
 C        -7.4110781399        5.6101184581      -10.2000054621
 O        -6.8047991241        5.3635358538      -11.2312229034
 C        -8.4395825347        6.8228175217      -10.1624889332
 C        -8.4089746737        7.4729598738      -11.5416684161
 C        -8.6142278272        6.4587193056      -12.6756128660
 O        -9.3186838075        5.4661400387      -12.5726795759
 C        -7.8420654081        6.6757062797      -14.2416973632
 C        -8.0838689482        5.3606395831      -14.9673913071
 O        -9.0803363821        5.1317104714      -15.6310081216
 C        -6.8981489458        4.2255343683      -14.9154144072
 C        -7.4284573935        2.9686842856      -15.7281049220
 C        -8.4881307513        2.1738001168      -14.8866982318
 O        -8.6768380132        2.4839228195      -13.7269017260
 C        -9.1474739786        0.8613427475      -15.3634346459
 C       -10.6606297213        0.9223424063      -14.8042803343
 O       -11.2411855697        1.9888173144      -14.9176450772
 C       -11.3070228989       -0.3689174478      -14.3800175639
 C       -12.2261781752       -0.0272953063      -13.1544209590
 C       -13.6120151454        0.6348160827      -13.6592241701
 O       -13.9343211433        0.4198873701      -14.8178859971
 C       -14.4405045808        1.5567892856      -12.6872014680
 C       -13.5548520985        2.9352017113      -12.8881589171
 O       -12.4001164896        2.8800408620      -12.6947523050
 C       -14.2495164429        4.2614468157      -13.4836506054
 C       -14.3218428263        4.2877770411      -15.0327525124
 C       -13.2370886616        5.0948309118      -15.6177854745
 O       -12.1307190135        5.3199850225      -15.0740374859
 C       -13.5752777946        5.8774130635      -16.8746226546
 C       -14.2004981167        4.9040928558      -18.0997732871
 O       -15.1059540515        4.1011005491      -17.9613106989
 C       -13.4934792718        5.0553334183      -19.4948432306
 C       -14.0243869396        4.1306897012      -20.6221039624
 C       -15.2789413229        4.7835802869      -21.4174707605
 O       -15.5320417738        5.9499879206      -21.3342838987
 C       -15.9257333861        3.7698664480      -22.4673089475
 C       -14.9130056712        2.7867612991      -23.1312810417
 O       -13.8447970891        2.5161267774      -22.7115789156
 C       -15.2270102045        2.1329403548      -24.5688446780
 C       -16.8206414469        2.8544085175      -21.6308368953
 C       -16.8663560096        4.5527001661      -23.4252238934
 C       -14.7193371497        6.8637451417      -16.7359375003
 C       -12.3390696545        6.5876414812      -17.3756063235
 C       -15.8910471577        1.5762843263      -13.2085210008
 C       -14.3470670725        1.1861509533      -11.2351488048
 C        -9.2258156526        0.7814492560      -16.9883509850
 C        -8.3011833134       -0.3303751206      -14.8995385391
 C        -8.4727307127        7.9692198201      -14.8025731947
 C        -6.3257236580        7.0079417006      -14.0012391017
 C        -8.0452233205        5.2873792255       -7.6999399977
 C        -5.5602804711        5.5189354364       -8.4799602866
 C        -6.6438036825       -1.6499552133       -7.9294612593
 C        -5.1637774446       -1.0201325008       -6.1117778196
 C         2.0340906975       -3.2839800796       -7.8075603231
 C         0.4075991006       -4.6236103973       -9.0786187638
 C         3.1088321046       -6.6011212017       -1.7903748143
 C         4.8567193448       -5.1152950624       -2.8477095967
 C         6.7806107070      -11.0737197160        0.6669598339
 C         7.8195013171       -8.6739477773        1.0222583251
 C        13.7612094589       -9.4511953544       -2.4125429974
 C        12.7619627093       -7.2343027059       -2.3165308455
 C        10.5468322643      -10.6902760001       -8.3042657030
 C         8.2399531639       -9.5130100722       -8.0778535063
 H         9.6413028219      -13.1862084395       -6.3194491822
 H         9.6125274001      -12.3717510745       -4.7688448946
 H        11.0108346456      -12.0848336005       -5.9041364651
 H        11.3802839300       -7.2297253688       -7.4115105988
 H        12.1299814884       -8.7836369853       -7.1407328087
 H        11.0102325056       -7.1766779198       -4.8830564056
 H        12.4344141935       -6.6049714184       -5.6621516789
 H        12.0876528559      -10.4379631513       -1.0623970691
 H        10.8305998635      -11.3660270804       -1.9772561440
 H        10.1798423795       -8.7608922878       -0.3767563303
 H        10.4133608581      -10.3010990017        0.5133032747
 H         5.4223788681      -10.8848018923       -1.7200374986
 H         6.5993054912      -10.2001918723       -2.7758834452
 H         3.6878610436       -9.1746609514       -2.3215930320
 H         4.5207694221       -9.5021895347       -3.7812854209
 H         2.4306488466       -4.3488141221       -4.7032745732
 H         1.4161537133       -5.4908573508       -3.8110884570
 H         0.7132335537       -6.6261721536       -6.0097591791
 H         2.0129994025       -5.8212279189       -6.8614189688
 H        -2.0540302436       -3.7050686768       -7.9357250214
 H        -2.0093738815       -2.7660724901       -9.3655547947
 H        -2.3515380091       -0.6013743318       -7.7987293812
 H        -2.9050199367       -1.7257629601       -6.6062809681
 H        -7.1559952804        0.9825379241       -9.0079940601
 H        -5.9375330603        0.4838132455      -10.1701565598
 H        -5.8061892323        2.6583487103      -10.6700520201
 H        -5.1001848232        2.8682344521       -8.9791697903
 H        -8.2215651467        7.5229443005       -9.3566102777
 H        -9.4284773984        6.2916361663       -9.9104879570
 H        -7.4083572651        7.9869386718      -11.6771164209
 H        -9.2932710115        8.1122137868      -11.6317015014
 H        -6.8297743829        3.9179479192      -13.8724914054
 H        -5.9600756209        4.6683917250      -15.4159336858
 H        -6.5753598605        2.2140236577      -15.8252090024
 H        -7.7723067920        3.2112650183      -16.7235214288
 H       -10.5149910826       -1.1262397190      -14.1888108372
 H       -11.9970036087       -0.8354355344      -15.1199966531
 H       -11.7517430769        0.6390745015      -12.4392491947
 H       -12.5530334161       -0.8502021475      -12.4762137423
 H       -13.6311348287        5.1265550541      -13.0987159490
 H       -15.3111478564        4.2958935997      -13.1881127852
 H       -15.2369785275        4.7293845342      -15.3779314721
 H       -14.3728079581        3.2706896605      -15.4235782104
 H       -12.4877279129        4.7951044587      -19.3650308815
 H       -13.6402770148        6.0298142937      -19.9160772875
 H       -14.1908540973        3.1504602225      -20.1996784734
 H       -13.2903497046        3.8912917759      -21.3539639057
 H       -15.7649499884        2.7437651052      -25.3276231962
 H       -15.7689551112        1.1936077793      -24.4902186825
 H       -14.2577678996        1.9767515736      -25.0954320960
 H       -17.2796575970        3.5277224013      -20.9637010444
 H       -16.1045522597        2.1058971863      -21.2309137317
 H       -17.5472014658        2.5159279896      -22.3753550557
 H       -17.2541110377        3.8938035438      -24.1734758109
 H       -16.3663390273        5.4127576624      -23.9167720239
 H       -17.7486316449        4.9268590906      -22.8911263017
 H       -14.5263378603        7.7272118423      -16.0626876225
 H       -15.6211564246        6.3945842131      -16.4324336562
 H       -15.1176656766        7.3203234460      -17.6963415427
 H       -11.9642621348        7.2684441891      -16.6428518393
 H       -12.4720543498        7.0212272536      -18.3602317552
 H       -11.5951569904        5.8362949918      -17.6102707717
 H       -16.2132527826        2.2429116298      -14.0702183214
 H       -16.4834361575        1.9624784886      -12.3210689897
 H       -16.2569087207        0.6230471597      -13.5076010323
 H       -14.9478790356        1.8663826334      -10.6857368295
 H       -13.2777838487        1.3188811222      -10.9704820280
 H       -14.6063016069        0.1556798544      -11.0158478735
 H        -9.5170984015       -0.1426795405      -17.3137928153
 H        -8.1669781831        0.9451736182      -17.1945133267
 H        -9.7507969159        1.6582709742      -17.3677554448
 H        -7.2824587576       -0.1955978369      -15.3204178069
 H        -8.7211006052       -1.2299917640      -15.3556148453
 H        -8.3282320638       -0.5286135662      -13.8263512846
 H        -9.5475922121        7.9356338866      -14.5709517239
 H        -8.3613437125        8.1218153790      -15.8808635903
 H        -8.1104423200        8.8109507285      -14.2588428709
 H        -6.2711138594        7.8041211355      -13.3180361699
 H        -5.8158860411        7.3619734332      -14.8217140712
 H        -5.7641693554        6.1804596281      -13.5722592574
 H        -9.1302882069        5.0268099286       -7.9218417958
 H        -8.0847408285        6.3271346826       -7.6350786159
 H        -7.5963140551        4.9426862023       -6.7521602582
 H        -4.9487666535        5.1542819450       -9.2702642631
 H        -5.2434061131        5.1493462096       -7.4177758542
 H        -5.5485366027        6.5883620837       -8.5811211939
 H        -6.4635788004       -2.6573421210       -8.0706790809
 H        -7.0804543874       -1.2950594081       -8.8732689101
 H        -7.4288880171       -1.5413446071       -7.1573580788
 H        -6.0727554343       -0.5694155033       -5.6778629063
 H        -4.2748941068       -0.4008651998       -5.6692755818
 H        -5.2710960133       -2.0625875573       -5.8441773695
 H         2.4376199165       -3.0131627443       -8.7814409608
 H         2.6315140153       -4.1099043819       -7.3637582826
 H         2.2291345232       -2.4838668038       -7.1002943725
 H         1.4097834991       -4.9586110503       -9.2505887851
 H        -0.0154764310       -4.0632678796       -9.9220129038
 H        -0.2493786398       -5.4939462626       -8.8634461255
 H         3.6174441989       -7.2128078511       -1.0602326090
 H         2.3068746150       -7.3117334367       -2.1944785018
 H         2.8038872453       -5.6479605655       -1.4408608948
 H         5.2763441071       -4.8281008345       -3.7872997771
 H         5.5679753390       -5.2335914850       -2.1080231313
 H         4.1176906836       -4.3499312866       -2.6809884140
 H         6.1152192713      -11.6662060943       -0.0732093403
 H         6.0500254012      -10.6066108311        1.3363094826
 H         7.5462481786      -11.5511903859        1.1758990266
 H         8.3859342316       -7.7705497017        0.7133265891
 H         8.4866234051       -9.1222642665        1.8129624998
 H         6.9475193484       -8.3585515542        1.6310562057
 H        14.7788238689       -9.2329489391       -2.5536641868
 H        13.7064117457      -10.4820662861       -2.7225084611
 H        13.6815341074       -9.2177289518       -1.3808682983
 H        12.4084327628       -7.3334004592       -1.2946131364
 H        12.0667995151       -6.5189310887       -2.7844344908
 H        13.7133403184       -6.8106119817       -2.3879791332
 H        10.2995378950      -11.6862932573       -8.5793438666
 H        11.4575481778      -10.6920982765       -7.7787854806
 H        10.7498921700      -10.1874384451       -9.2409460100
 H         8.4033756368       -8.6487363212       -8.8099447495
 H         7.5567770005       -9.1030684482       -7.2946667951
 H         7.6248398623      -10.1727068101       -8.6515513848
 Na        8.0558319441       -9.1342818393       -3.8721401375
 Na      -10.7102251566        4.0436900901      -14.0069905508
