232

 C       -13.0605398633      -16.3068163255       -2.3562699447
 C       -13.9124418395      -15.5244185555       -3.3755816219
 O       -13.6290390560      -14.4195337138       -3.7880958649
 C       -15.3053904264      -16.1825451695       -3.7915890995
 C       -15.9861929257      -15.6975027450       -5.0956304564
 O       -16.7244861630      -14.6696050404       -5.1215626052
 C       -15.9076343349      -16.4621936019       -6.4018257772
 C       -16.0825195651      -15.5109867120       -7.5980046561
 C       -14.9840311162      -14.4132939568       -7.5009517654
 O       -14.0724132769      -14.4969275639       -6.6813980420
 C       -15.1304876323      -13.1420108697       -8.4550621478
 C       -15.7748617427      -11.9665138022       -7.6363733027
 O       -16.5043173303      -12.2374231288       -6.7034398505
 C       -15.5757541714      -10.4828618690       -7.9503754143
 C       -15.8163041312       -9.5686607213       -6.6888566039
 C       -14.6943926748       -9.7615885210       -5.6285163607
 O       -14.2571034534      -10.8476875161       -5.2714759709
 C       -14.1107905313       -8.5222476138       -4.9219024913
 C       -13.2284603479       -7.6151627050       -5.9584864373
 O       -13.4185668129       -7.6830465301       -7.1435709674
 C       -12.1994735733       -6.7931041240       -5.2596832605
 C       -11.6818386562       -5.5401673238       -6.0982966282
 C       -12.9595190969       -4.6023972053       -6.2979582570
 O       -14.0890750996       -5.0555385460       -6.1084632690
 C       -12.8367355702       -3.1683379888       -7.0258588296
 C       -11.5873986487       -2.5226421588       -6.5859421717
 O       -10.9770019782       -2.9310712047       -5.5876786531
 C       -11.1611972662       -1.1002263594       -7.0976432964
 C        -9.7099069460       -0.7065618905       -6.8755698163
 C        -9.6647489978        0.7777206687       -6.4291229314
 O        -9.9417367041        1.6259340033       -7.1781682285
 C        -9.1552934007        0.9898174213       -4.9117460447
 C        -7.5937734761        0.4983374296       -5.0660385252
 O        -7.2382635627       -0.6001921805       -4.8575954533
 C        -6.6272293586        1.6138715700       -5.4269928867
 C        -6.9089214510        2.2242874931       -6.8850488132
 C        -6.0316627525        3.4824565892       -7.2434577885
 O        -5.2359931797        4.0135526850       -6.4989817186
 C        -6.1723558903        4.0443254837       -8.7379795470
 C        -5.0483536077        3.1467314609       -9.3559178328
 O        -5.4149026428        2.0716130083       -9.8120572530
 C        -3.5630692217        3.4591949613       -9.4096757490
 C        -2.7344909494        2.2614673694       -9.1587046244
 C        -1.5367513992        2.3944923880      -10.1325060878
 O        -1.6874577026        2.8628779078      -11.2137517691
 C        -0.1837038383        1.9250522734       -9.5463879228
 C         0.9501679415        2.0473688488      -10.5365490859
 O         1.7759373089        1.1681047938      -10.6851677362
 C         1.1946052419        3.3477596746      -11.3893126937
 C         2.6208311537        3.9426256834      -11.1468631654
 C         2.4767610233        5.4853487414      -11.5440467263
 O         1.9487652613        6.2444417320      -10.7176464185
 C         3.2072694043        6.0126116798      -12.8637261639
 C         3.3061015471        4.8883387300      -13.9899686316
 O         4.5062839149        4.5348099574      -14.2441889160
 C         2.0269569951        4.4904898471      -14.7832318134
 C         2.2473327535        5.1115448605      -16.1860554793
 C         3.5579878955        4.5808522516      -17.0808751000
 O         3.9400635543        3.4676908480      -16.8410541571
 C         4.0858681383        5.3506469951      -18.3512217686
 C         5.7106053395        5.2433252470      -18.3272845896
 O         6.2722643708        4.9309911743      -19.3334454988
 C         6.4025410142        5.6994140183      -17.1101684688
 C         7.8956470739        5.4383986342      -16.9168999835
 C         8.1661751538        3.8913129755      -17.0739702933
 O         7.2736408062        3.0892727777      -16.8984378948
 C         9.6183006086        3.4400905855      -17.6599969755
 C        10.5765220276        3.4914994139      -16.3881131505
 O        10.4051845091        4.2850898259      -15.5248088282
 C        11.7191406686        2.4086085107      -16.2968210610
 C        12.3514008242        2.4079497949      -14.9555516817
 C        11.3777267252        2.1097433125      -13.8530020521
 O        10.2949399420        1.5664751862      -14.1394026619
 C        11.6470952048        2.6771479238      -12.4771805541
 C        10.5366374684        2.1730996233      -11.4885342951
 O        10.9409227841        1.3099793198      -10.7307506745
 C         9.1660598856        2.8054383530      -11.5185547163
 C         8.0338773266        1.7228459936      -11.3041361436
 C         7.2093943063        1.5503722770      -12.5514606147
 O         7.1252434135        2.4961501909      -13.3460978624
 C         6.3611659123        0.2693235888      -12.6303762547
 C         6.4867024455       -0.3224033213      -14.1067402640
 O         6.3805328047        0.3012317402      -15.1079626943
 C         6.7302682461       -1.8281186820      -14.2500671446
 C         6.7632613696       -0.8289163108      -11.5973569871
 C         4.9064917375        0.8215855847      -12.4158724355
 C        13.0504637627        2.2346352202      -11.9470127301
 C        11.5533476519        4.2482185720      -12.5856753143
 C         9.3861805108        1.9456658349      -18.1954666320
 C        10.2603697803        4.2758200070      -18.7410725478
 C         3.5889431356        4.5852657492      -19.5731335751
 C         3.6257069489        6.8703112139      -18.3412572785
 C         2.4735193242        7.2391325453      -13.3727015445
 C         4.6116948717        6.2634065938      -12.3001614787
 C         0.0779077742        2.9181380830       -8.3776882838
 C        -0.2576611824        0.5391400381       -8.8783883955
 C        -7.4539788451        3.7675857435       -9.4776225734
 C        -5.7382661448        5.4934345115       -8.8461425091
 C        -9.4558051236        2.3729144551       -4.3681997086
 C        -9.9731094955        0.0157519115       -4.0639375939
 C       -12.9000696535       -3.5373965446       -8.5866374075
 C       -13.9993617936       -2.3097229220       -6.6550034571
 C       -15.2759403893       -7.5910889317       -4.4825706083
 C       -13.2553186589       -8.9794965618       -3.7172962309
 C       -13.6939871264      -12.8219706729       -9.0605523415
 C       -16.1214237083      -13.2811159195       -9.7449477435
 C       -15.4018120154      -17.6519670746       -3.6303939769
 C       -16.1656147390      -15.5704834756       -2.4534247668
 H       -12.2152199830      -16.9548958219       -2.7131325618
 H       -13.7193523676      -16.9125880659       -1.7504360800
 H       -12.5968273229      -15.6096361712       -1.7233716590
 H       -16.5680670844      -17.3704319372       -6.3120475538
 H       -14.8812939555      -16.8486571029       -6.5783621719
 H       -17.0840418274      -15.0384814697       -7.5703394082
 H       -16.0658940469      -16.1096112889       -8.5609914721
 H       -16.4527626531      -10.2340569081       -8.5248186104
 H       -14.7374453026      -10.2683705879       -8.4958660752
 H       -16.7346762609       -9.9227358307       -6.2080697173
 H       -15.7667650377       -8.4970022487       -7.0436486730
 H       -11.3519537876       -7.4627954304       -5.2173195400
 H       -12.4979118329       -6.4085211323       -4.3047929692
 H       -11.5212754741       -5.8612532341       -7.1091945902
 H       -10.7345410425       -5.0613294996       -5.6900319401
 H       -11.6720815765       -0.4634706785       -6.4645613280
 H       -11.4072020230       -1.1058391421       -8.1574424441
 H        -9.1702480195       -0.7556793802       -7.8123305303
 H        -9.1405693398       -1.3438492282       -6.1647998508
 H        -5.6421269962        1.2733424850       -5.4843705897
 H        -6.5655664822        2.4387246835       -4.6066101973
 H        -7.9682061651        2.5147518960       -6.9022924362
 H        -6.8431500396        1.4812856934       -7.6665736579
 H        -3.2905185308        4.1826918984       -8.6371900825
 H        -3.3184359832        3.7977764900      -10.3393850216
 H        -3.2481672021        1.4170484568       -9.5295948935
 H        -2.6247132139        2.1918782813       -8.0340036827
 H         0.3843342874        4.0147892012      -11.1095752137
 H         1.1603740649        2.9807890820      -12.4204065391
 H         3.4385017229        3.4456730352      -11.7465135389
 H         2.7239953100        3.7864416342      -10.0978809593
 H         1.0801626827        4.8540744823      -14.3591812941
 H         1.8531253531        3.4515636882      -14.7945134701
 H         2.2956444328        6.2485456692      -16.0563963177
 H         1.4277341261        4.7111806281      -16.8249038775
 H         5.8733564461        5.1987577694      -16.2636840522
 H         6.2909607606        6.7500184148      -17.0440851047
 H         8.0889144265        5.7975808322      -15.8202549552
 H         8.3811082878        5.9879968292      -17.6068328949
 H        12.2610122556        2.8800080524      -17.0989961435
 H        11.2361343193        1.4104474159      -16.4296768934
 H        12.8716146127        3.3520685893      -14.7510261073
 H        13.2091448702        1.6466733264      -14.8127750438
 H         8.9578476166        3.2828205017      -12.4577418016
 H         9.1475048574        3.4851100463      -10.6777946863
 H         7.3249990187        2.2221319585      -10.6674132375
 H         8.4430339404        0.8133139281      -10.8406771837
 H         5.8829935986       -2.3887619520      -14.0195801332
 H         7.5158467216       -2.2231110656      -13.6442754722
 H         7.1488393591       -1.8971664578      -15.2333352775
 H         6.1200923320       -1.6504059190      -11.9189591100
 H         6.4787731828       -0.6460451808      -10.5897236832
 H         7.7348519465       -1.2031090693      -11.7260635870
 H         4.9340916337        1.6239388565      -11.6369204070
 H         4.3437888225       -0.0294903853      -11.9716057174
 H         4.5338863860        1.1451119511      -13.4605688200
 H        13.7967507143        2.5870845922      -12.6119264867
 H        13.0144731006        1.1536297534      -11.6940557174
 H        13.1500541637        2.6950307169      -10.9783171521
 H        12.4570506348        4.6311558001      -13.0329330805
 H        11.4257673849        4.5603908578      -11.5758405589
 H        10.7387801432        4.7593621529      -13.0687579450
 H         9.3363786304        1.1458910770      -17.5123109354
 H        10.1210955017        1.6780489358      -18.9916356885
 H         8.4184657539        1.8449520042      -18.6808262824
 H        10.5156679320        5.3474851906      -18.4390329264
 H         9.5673768013        4.2988501794      -19.6317701703
 H        11.2056271052        3.8563312767      -19.0173293538
 H         2.7165783867        5.0548962329      -19.8993418802
 H         3.3445878695        3.5122196347      -19.2783936589
 H         4.2122553775        4.6905947434      -20.4530055978
 H         4.1672203121        7.4155373848      -19.0898476757
 H         3.6563545843        7.4539579954      -17.4215260763
 H         2.5909347084        6.8483502168      -18.7932518475
 H         1.8859635688        7.5480304433      -12.5720432507
 H         1.7992122934        7.0433806593      -14.2069962462
 H         3.1512889066        8.0693159913      -13.6084243559
 H         5.3296294098        6.6749596682      -12.9400873592
 H         5.1716320984        5.4748022182      -11.7912368110
 H         4.6566269236        7.0054616027      -11.4690402066
 H         1.1326353613        3.0146681931       -8.2618825277
 H        -0.2519076112        2.5524441191       -7.5045999278
 H        -0.2481394113        3.9111555074       -8.6972360538
 H        -0.8809553397        0.6250745685       -8.0588785524
 H         0.7238849546        0.4464828452       -8.3473115910
 H        -0.4997584944       -0.2991464438       -9.4934817059
 H        -7.5467147149        2.7354339412       -9.7036803277
 H        -7.6197264732        4.4610409816      -10.3369043987
 H        -8.1976236161        4.0231871578       -8.7647144763
 H        -5.4213126951        5.7265499710       -9.9004384124
 H        -4.9248599878        5.8272255582       -8.2520842764
 H        -6.5673005820        6.1862331520       -8.7139399581
 H       -10.5336407505        2.5914821126       -4.3000046287
 H        -8.9924673254        3.1933946347       -4.9528621655
 H        -9.1075716397        2.3443363623       -3.3247628585
 H        -9.6540733718        0.0476702028       -3.0031264339
 H        -9.8476056112       -1.0750267651       -4.3265785372
 H       -11.0848091756        0.0707690346       -4.2567701098
 H       -12.9486092126       -2.6227326947       -9.1816603091
 H       -13.6456795692       -4.2365119741       -8.8024030005
 H       -11.9587378199       -4.0529485144       -8.7338426553
 H       -14.7455076309       -3.0304404609       -6.3163906177
 H       -14.3657043766       -1.7259508618       -7.4167682044
 H       -13.6786654054       -1.6036885647       -5.8823228809
 H       -16.0876585546       -7.2827718388       -5.1050722871
 H       -14.8340250844       -6.5880973693       -4.2056401447
 H       -15.7320781787       -7.8324285936       -3.5655016668
 H       -12.2763660349       -9.3065591829       -4.0545165666
 H       -13.8351269757       -9.6538090219       -3.1609813075
 H       -12.9409675328       -8.0282857136       -3.1651438310
 H       -13.0609449775      -12.7665977457       -8.2102321818
 H       -13.7855979489      -11.8947979724       -9.6414734139
 H       -13.3971481223      -13.6914665171       -9.5723608963
 H       -16.7871080147      -14.1433307100       -9.5272003847
 H       -15.5188295367      -13.5764572485      -10.6010684682
 H       -16.5107635028      -12.3605192932      -10.0634609155
 H       -14.9136065354      -18.1138496565       -4.4691030728
 H       -16.4459555698      -17.9876186928       -3.7616736289
 H       -15.0087477863      -17.9650727022       -2.6541665544
 H       -16.0597120426      -14.4733640666       -2.4267526568
 H       -15.9045383363      -15.9968323078       -1.4998980606
 H       -17.2062230767      -15.6605522077       -2.5720527946
 Na      -14.9313832994      -12.9845809720       -5.1493223407
 Na        5.6607835834        2.7217656348      -15.3132789203
