232

 C         9.8938665004      -12.3167379976       -5.9104621941
 C         9.1918649409      -10.9726069450       -6.1125632304
 O         8.1750435245      -10.7603799491       -5.4360640206
 C         9.6245069220       -9.9576857533       -7.3529557339
 C        10.0381608099       -8.6122876044       -6.7168669472
 O         9.1929052934       -7.9915524031       -6.0480735931
 C        11.5080515961       -8.0526749222       -6.8276052578
 C        11.9304364608       -7.4972011427       -5.3722318327
 C        12.7591958727       -8.5300568503       -4.6438056928
 O        13.4772253893       -9.3816237607       -5.2186118185
 C        12.6138208734       -8.6985413304       -2.9525535708
 C        11.2212641362       -9.1109102544       -2.6644600805
 O        10.2277819714       -8.5105089099       -3.0699737172
 C        11.0796431505      -10.2875985275       -1.6973080823
 C        10.1773501269       -9.8087150437       -0.4951532157
 C         8.7125442135      -10.1899067469       -0.8746626894
 O         8.5699744596      -10.8406716989       -1.8980067346
 C         7.5693780208       -9.7104255256        0.0814986553
 C         6.5128515371       -9.0137290249       -0.9849074057
 O         6.1100164622       -7.9003651545       -0.8051054303
 C         5.8678461961       -9.8889962830       -2.1125829121
 C         4.7729737161       -9.0856159197       -2.8815249471
 C         5.1667435300       -7.6458145978       -3.2242786527
 O         6.1706336096       -7.3754202969       -3.8651763711
 C         4.0294791979       -6.4560198873       -2.9994180148
 C         3.0841776775       -6.6180330382       -4.2846839115
 O         3.0977317873       -7.6809014256       -4.8829370624
 C         2.0897069462       -5.4989896184       -4.6838029298
 C         1.3453504043       -5.8113235882       -5.9775589670
 C         0.4431291296       -4.5534797528       -6.3521569291
 O        -0.4450237127       -4.2056091883       -5.6556988337
 C         0.6956861486       -3.8136346219       -7.6848802421
 C        -0.3014706418       -2.5311058324       -7.7290641462
 O         0.0877168426       -1.4498888653       -7.3709054834
 C        -1.8022774631       -2.8400641694       -8.1193863007
 C        -2.7438482583       -1.6763067025       -7.6771550044
 C        -4.1235650033       -1.6806462695       -8.4548157347
 O        -4.2957284605       -2.0682007388       -9.5745585716
 C        -5.4073544407       -0.9809575590       -7.5989387734
 C        -5.4081260094        0.5833192735       -7.9565113156
 O        -4.7320372986        1.3833518151       -7.3163100671
 C        -6.0783641253        1.0568906272       -9.2394185232
 C        -5.8747308907        2.4830465673       -9.6650238900
 C        -7.0996447955        3.3087672832       -9.1019156416
 O        -8.1772316539        2.7494484882       -9.1636830271
 C        -7.0533752943        4.9134611186       -8.8398521069
 C        -7.3864731832        5.6256795445      -10.1580882248
 O        -6.7829553645        5.3175921708      -11.1725132794
 C        -8.4268602389        6.8455040693      -10.3265299892
 C        -8.4082368015        7.4967267965      -11.7658641814
 C        -8.5795092330        6.4653637709      -12.8227119055
 O        -9.3450574148        5.4922110953      -12.6264408706
 C        -7.8636242935        6.6853922963      -14.1231122931
 C        -8.0788540416        5.3756792108      -15.0829749233
 O        -9.0925156905        5.2195336687      -15.7090826162
 C        -7.0314077856        4.2876197846      -15.0351938296
 C        -7.5792978263        3.0291780180      -15.7014044201
 C        -8.4589053331        2.1210697010      -14.7573731136
 O        -8.7481993252        2.5204178051      -13.6564236414
 C        -9.1110928137        0.8838197236      -15.3739456272
 C       -10.6184444457        0.9350153449      -14.8789692862
 O       -11.2710721849        1.9038193290      -14.8678749341
 C       -11.3698344572       -0.2877219666      -14.3207908650
 C       -12.2188589434        0.0799137072      -13.1026279762
 C       -13.5485560888        0.6118495294      -13.6380805941
 O       -13.8768883452        0.3645105986      -14.7763484610
 C       -14.4165075549        1.6113230740      -12.7073031637
 C       -13.7015851097        2.8940038047      -12.9444698199
 O       -12.5390306381        2.9150482356      -12.5357271862
 C       -14.2062111388        4.2310498742      -13.4277548075
 C       -14.3788161333        4.2033839802      -14.9719067106
 C       -13.3824132121        5.1998766949      -15.6614412685
 O       -12.2809430767        5.3054532998      -15.1552974029
 C       -13.6086521837        5.9068732891      -17.0375225607
 C       -14.0930462702        4.8094924692      -18.1618572250
 O       -14.9730955172        3.9900374361      -17.9361387273
 C       -13.4861588021        5.1278758458      -19.4958452100
 C       -14.0091934363        4.2286067794      -20.6481793264
 C       -15.1501956308        4.7728854647      -21.5244735450
 O       -15.5370328609        5.9247091722      -21.3402906514
 C       -15.9388323244        3.8344867867      -22.4973590264
 C       -14.8986728649        2.9099379114      -23.2542107658
 O       -13.8712117732        2.5169179041      -22.6536277695
 C       -15.3875735345        1.9944970837      -24.3751730717
 C       -17.0021228431        2.8076530632      -21.6345574414
 C       -16.8141151057        4.6524497038      -23.4147994857
 C       -14.7492565771        7.0010222834      -16.9137943666
 C       -12.1563774493        6.6040634219      -17.2113788508
 C       -15.8979339353        1.6150937885      -13.1752700808
 C       -14.3314511110        1.2556811772      -11.2202345801
 C        -9.2713370944        0.8380539607      -17.0062784770
 C        -8.3038128715       -0.3152916672      -14.8569753296
 C        -8.5457484245        7.8947763277      -14.9306281829
 C        -6.3688512259        6.9918894512      -13.7333403321
 C        -8.0589395699        5.2821178215       -7.7296141475
 C        -5.6322190766        5.2351847238       -8.4037781734
 C        -6.7928713400       -1.6011512949       -7.9484323128
 C        -5.1274612296       -0.9335603691       -6.0052092189
 C         2.1670148621       -3.2504939213       -7.7104009898
 C         0.3354844029       -4.6943412475       -8.9349568934
 C         2.9969870848       -6.6275317595       -1.8431813293
 C         4.7055726770       -5.0453005580       -2.7675774315
 C         6.8400821062      -10.9253358685        0.6736413527
 C         7.9140855731       -8.6527244070        1.1114285193
 C        13.8443213417       -9.5301044405       -2.3735504607
 C        12.6696624178       -7.2785811675       -2.2183185219
 C        10.5592221094      -10.6620764865       -8.3213491249
 C         8.2886603260       -9.4867386175       -8.1187581506
 H         9.3628768114      -13.0855972307       -6.4810625526
 H         9.7772416044      -12.6760901673       -4.8736628827
 H        10.9897224429      -12.4314121614       -6.2240451605
 H        11.6103257906       -7.2950911169       -7.5672185409
 H        12.2117459592       -8.7825651627       -7.0523013633
 H        11.0830798476       -7.2282438629       -4.8278383343
 H        12.3737864549       -6.5796171366       -5.6235100385
 H        12.1394070884      -10.6009972149       -1.4262316884
 H        10.6678697455      -11.0982441667       -2.3271326092
 H        10.2882719320       -8.7383955366       -0.2569594945
 H        10.4486892462      -10.4377892360        0.4173412284
 H         5.3793147675      -10.7471435636       -1.6789016766
 H         6.7118161850      -10.2607063364       -2.6883826299
 H         3.7917456946       -9.0232688604       -2.3155637988
 H         4.5234333144       -9.6006261454       -3.7998000611
 H         2.5226513665       -4.4488844041       -4.7550132697
 H         1.4147680261       -5.4775560894       -3.8069131216
 H         0.7736248882       -6.7845400437       -5.8601865681
 H         2.0988614819       -6.0441934526       -6.7034108460
 H        -2.0054171719       -3.7659899449       -7.7039022809
 H        -1.8490249401       -2.7922189262       -9.1972378630
 H        -2.2669652660       -0.6723090381       -7.8318286498
 H        -2.9811990182       -1.6324803662       -6.6295779208
 H        -7.0917286127        0.9194868294       -9.2382944987
 H        -5.5772284184        0.4321493268       -9.9930997860
 H        -6.0012363606        2.7128823267      -10.7466594675
 H        -4.9065877317        2.8460181651       -9.2527277371
 H        -8.1660793364        7.6427329062       -9.4899866752
 H        -9.4110119962        6.4339203762      -10.0347891693
 H        -7.4774944823        8.0177936549      -11.8943156273
 H        -9.2575904845        8.1266745099      -11.8548026035
 H        -6.8282519801        4.1309466726      -13.9089728878
 H        -6.2199932655        4.6539933887      -15.6443882719
 H        -6.6954137836        2.3969002546      -16.0356398703
 H        -8.1378396233        3.2896815668      -16.6246055883
 H       -10.7805780477       -1.0885531294      -14.0287522453
 H       -12.0880383708       -0.7426110139      -15.0677886240
 H       -11.7840895091        0.7577433730      -12.4817763161
 H       -12.4147393957       -0.7609370594      -12.4646435183
 H       -13.3799414772        4.9213399193      -13.1876838470
 H       -15.1393910477        4.5184483030      -12.9533189726
 H       -15.4248099022        4.2889066033      -15.3213472259
 H       -14.0788500906        3.1593624681      -15.3307051404
 H       -12.4406392374        4.8845733362      -19.4181005816
 H       -13.7052594342        6.1488794178      -19.7636228323
 H       -14.3171491489        3.2242515853      -20.2519898341
 H       -13.1817254009        3.9305229554      -21.2677474512
 H       -16.0294813187        2.5359111560      -25.1802870318
 H       -15.9551567476        1.2210794210      -23.9035344055
 H       -14.5859326466        1.5855418075      -24.9570012161
 H       -17.5368992192        3.4568065451      -20.9710794789
 H       -16.3243572245        2.0545820414      -21.2510786862
 H       -17.5998980402        2.4285504085      -22.4676128019
 H       -17.2781802607        4.1064836796      -24.1869429691
 H       -16.2608967652        5.3706225260      -23.8098981093
 H       -17.5411613224        5.1878594740      -22.8263425561
 H       -14.8397021717        7.4045632237      -15.8882934559
 H       -15.7458101340        6.7481767170      -17.2634881852
 H       -14.5814328969        7.8875452208      -17.5437564691
 H       -12.0283313009        7.1525779424      -16.3312902779
 H       -11.9653799496        7.1797913268      -18.1327673434
 H       -11.3924004669        5.8437789519      -17.2698774998
 H       -16.1763488060        2.0440358047      -14.1465959813
 H       -16.5396401787        2.1431017522      -12.4009050245
 H       -16.2463307244        0.5504498410      -13.2903883968
 H       -15.1580801351        1.8558695626      -10.7272388726
 H       -13.3699869543        1.3765254484      -10.7975703076
 H       -14.5993115265        0.2590119017      -11.0715383579
 H        -9.9078788865        0.0068285148      -17.1444553322
 H        -8.2881796705        0.7301997762      -17.4817737387
 H        -9.7429009127        1.7491622988      -17.3480532870
 H        -7.3129774970       -0.0216202696      -15.1517211507
 H        -8.4951446540       -1.2218661744      -15.4227368948
 H        -8.4048926942       -0.5915599187      -13.7582846697
 H        -9.5270852756        7.6883370469      -15.1596114725
 H        -8.0043999222        8.0450878972      -15.8438374441
 H        -8.4660026209        8.8370928759      -14.3262849484
 H        -6.1465495616        7.8620312216      -13.1354587737
 H        -5.7314461030        7.1230227539      -14.6093093519
 H        -6.0033154712        6.1605604347      -13.2118336095
 H        -9.0492898888        4.9363618506       -8.0214496416
 H        -8.1852963637        6.3634146155       -7.7632733297
 H        -7.6832074460        5.0966379122       -6.6959976548
 H        -4.9009386191        4.8692006239       -9.1464339437
 H        -5.5477614219        4.7026685693       -7.4865154805
 H        -5.5441373086        6.3122668578       -8.2882032765
 H        -6.7950730004       -2.7159168262       -8.1099733345
 H        -7.1661412155       -1.2049919716       -8.8427528883
 H        -7.5378204847       -1.3934320486       -7.1724309381
 H        -5.9216794181       -0.4118138405       -5.4977794705
 H        -4.2353281991       -0.2623499502       -5.8802504943
 H        -5.1403044812       -1.9716078993       -5.4514718187
 H         2.3093384818       -2.4599959161       -8.4375175487
 H         2.9252206976       -4.0968645286       -7.8852483765
 H         2.4661988547       -2.8732919708       -6.7405686021
 H         1.1994608250       -5.3315105987       -9.2117817348
 H         0.0263067515       -4.0557665954       -9.7427339702
 H        -0.5870901870       -5.2988368941       -8.6464605417
 H         3.3980353417       -7.0538764834       -0.9007628719
 H         2.3793004818       -7.3751981782       -2.2437540891
 H         2.5004379673       -5.6741907926       -1.7458678586
 H         5.6162873688       -4.9038075320       -3.4056527227
 H         4.9235786510       -4.8963213667       -1.6869311649
 H         3.9927795937       -4.3470727390       -3.1491842765
 H         6.3575569563      -11.4566905324       -0.1459587003
 H         6.0543852262      -10.5728610223        1.3678702311
 H         7.6517667856      -11.5258007338        1.1434572765
 H         8.6105718212       -7.8526121708        0.8493610685
 H         8.3442326841       -9.0204093019        2.1026508913
 H         6.9273290728       -8.2525198891        1.4559436132
 H        14.7436028150       -9.0922794802       -2.6595444199
 H        13.9884359986      -10.5222529696       -2.8102888717
 H        13.9891377465       -9.4017415628       -1.3309692714
 H        12.3916821150       -7.2653088328       -1.1730702877
 H        11.9732313761       -6.6199208104       -2.7417294083
 H        13.6342753564       -6.8342595253       -2.4192137949
 H        10.4582921483      -11.7353895758       -8.4524482057
 H        11.5902239251      -10.4366410281       -8.0036942206
 H        10.4762026127      -10.2625145961       -9.3091608925
 H         8.5810925675       -8.9281023653       -9.0173427208
 H         7.5823331771       -8.8500428323       -7.5763726875
 H         7.6599551648      -10.2745659396       -8.5841145749
 Na        8.1478733076       -9.0557698257       -4.0824702740
 Na      -10.7505590397        4.0687739357      -13.9871297761
