232

 C         9.7858987598      -12.4344141520       -6.3205677877
 C         9.3584849539      -11.0029103209       -6.1653862200
 O         8.4658953745      -10.6823206871       -5.3585691820
 C         9.6771228675       -9.9196206012       -7.2796568351
 C        10.1093798019       -8.5756555271       -6.6629793522
 O         9.3430792527       -7.9560131013       -5.9441489551
 C        11.5470652657       -8.1102694968       -6.7704699722
 C        12.1274823376       -7.4749672907       -5.5088066697
 C        12.7109657252       -8.5346971332       -4.6281541738
 O        13.1088456729       -9.5780780189       -5.1855779435
 C        12.7436504750       -8.5151623154       -3.0681141396
 C        11.3303102060       -9.1682312447       -2.7367585236
 O        10.2438612379       -8.9687027994       -3.2997233739
 C        11.2045494748      -10.3904223339       -1.6208607707
 C        10.1566113981      -10.1901490217       -0.5190103745
 C         8.6643827466      -10.3343938238       -0.9581062220
 O         8.4058182368      -10.9831978054       -1.9474543044
 C         7.6143908004       -9.5853232054       -0.0199019882
 C         6.5285043165       -8.9434284649       -0.8420990475
 O         6.0945767497       -7.8082302932       -0.6765041437
 C         6.1038279102       -9.7613215855       -2.0531802504
 C         4.9460384286       -9.1882268559       -2.9127012019
 C         5.1584751195       -7.6531144825       -3.2001726511
 O         6.2946887910       -7.2552052624       -3.4482346466
 C         4.0085098533       -6.6409048079       -3.0502164479
 C         3.1749202746       -6.7835886366       -4.4080581350
 O         3.3261647156       -7.6886117020       -5.2087921607
 C         2.2973019185       -5.5101537041       -4.7717537189
 C         1.4163906774       -5.8078390123       -6.0514867002
 C         0.3479316569       -4.8028222521       -6.2441623984
 O        -0.6020905764       -4.6398016116       -5.5513818436
 C         0.5699534939       -3.8511144794       -7.5639043070
 C        -0.3818278835       -2.6656467097       -7.5605039352
 O        -0.0220278281       -1.5945936763       -7.1745984195
 C        -1.9161575445       -2.8530248173       -7.9777065448
 C        -2.6835513439       -1.5660378926       -7.5674375700
 C        -4.0185873747       -1.4731773921       -8.2807421881
 O        -4.0809206473       -1.9681005528       -9.4027675580
 C        -5.3619148206       -0.8730396112       -7.5107653276
 C        -5.4165941626        0.6737203846       -7.9738754229
 O        -5.0686868260        1.6000051484       -7.2700553900
 C        -5.8033414523        0.9428009447       -9.3846627043
 C        -5.8933258735        2.4193181238       -9.7354374130
 C        -7.1083429624        3.1253691340       -9.1046859999
 O        -8.2278750984        2.6447575743       -9.0588518318
 C        -7.0662319747        4.7324836418       -8.7761073206
 C        -7.1996766509        5.4382570661      -10.2155280204
 O        -6.4704906841        5.2249773203      -11.1754127807
 C        -8.3301646313        6.5003875216      -10.2931246070
 C        -8.3857531206        7.3254255779      -11.6052046182
 C        -8.6966769827        6.5250597580      -12.8904712780
 O        -9.7071523150        5.7928142191      -12.8011186204
 C        -7.9660214006        6.6325382897      -14.2674208052
 C        -8.2585184501        5.3822134703      -15.1978931024
 O        -9.3164880807        5.2158525901      -15.7320844450
 C        -7.0037126878        4.3051871311      -15.1737390407
 C        -7.5967404124        3.0369471500      -15.7521854222
 C        -8.4864799911        2.2317414661      -14.8025227025
 O        -8.7468318698        2.7037493127      -13.7311572688
 C        -9.2454897971        0.9674718095      -15.2426472570
 C       -10.7931365970        0.9138729221      -14.7229822916
 O       -11.4857740762        1.8727796336      -14.8754488266
 C       -11.2199701469       -0.3213738140      -14.0411813897
 C       -12.3286713528       -0.0462348240      -12.9123775505
 C       -13.5760519327        0.5756377857      -13.5982361914
 O       -14.1026562026        0.2041432167      -14.6198002238
 C       -14.4167376598        1.7024098333      -12.7656877691
 C       -13.7464391303        3.1296692084      -12.8597470082
 O       -12.6813421461        3.3778097978      -12.4199925924
 C       -14.5150996405        4.3296970193      -13.6142782341
 C       -14.5493616036        4.4920890572      -15.1494486517
 C       -13.4275821846        5.3352178821      -15.6384717929
 O       -12.3408812119        5.3869007652      -15.0466626452
 C       -13.5399153842        5.9638313098      -17.0225864484
 C       -13.7689061203        4.9016785129      -18.1442201766
 O       -14.1628440399        3.7475077028      -17.9084181353
 C       -13.5108981213        5.3312417802      -19.5948273827
 C       -14.0066576902        4.1947025312      -20.5727647982
 C       -15.1572387563        4.7492358146      -21.4944340578
 O       -15.4923930050        5.9192582776      -21.3412034328
 C       -15.9191610659        3.8357726998      -22.4192573896
 C       -15.1501813476        2.5572221507      -23.0989192249
 O       -13.9174196455        2.5625268469      -23.1263591373
 C       -16.0407428612        1.7472655304      -24.1551964301
 C       -17.1127356580        3.3058493468      -21.5150964439
 C       -16.4990534111        4.6530598957      -23.5955447116
 C       -14.7132588345        6.9052625012      -16.9719755227
 C       -12.2916746891        6.7484785814      -17.3088847693
 C       -15.9302946910        1.6732387537      -13.1505399259
 C       -14.3117956893        1.1651678216      -11.2000062135
 C        -9.3261028412        0.8369525661      -16.8994579558
 C        -8.3627518143       -0.2052321003      -14.8307525309
 C        -8.4623995191        8.0028793670      -14.7944184789
 C        -6.4416682655        6.8069742739      -13.9829718839
 C        -8.2240622783        5.1423455687       -7.8751021857
 C        -5.7212761591        5.2268949718       -8.2715217657
 C        -6.6259617768       -1.6606151986       -8.0704987773
 C        -5.1662486308       -0.8897394587       -5.9510460709
 C         2.0670272542       -3.2924376354       -7.5884776837
 C         0.4041828427       -4.8413725172       -8.8139819741
 C         3.0940034887       -6.9043481885       -1.8587491686
 C         4.6083576578       -5.2242058898       -2.9551937770
 C         7.0017458253      -10.8136897154        0.7202167894
 C         8.2021127333       -8.5012500365        0.9469506894
 C        13.9812093149       -9.2992635957       -2.4221440607
 C        12.8051119736       -7.0631706980       -2.5485148951
 C        10.7880656408      -10.3389347761       -8.2564644196
 C         8.3466166544       -9.7028034643       -7.9567349763
 H         9.7174990819      -12.9298880869       -7.2475640018
 H         9.4847439278      -13.0718465295       -5.5102701590
 H        10.9040955058      -12.4160992589       -6.0491866038
 H        11.5124979251       -7.5201499845       -7.7643009223
 H        12.1919475977       -8.9354188044       -6.9898410305
 H        11.2888101251       -6.8208010351       -5.1909637192
 H        12.9577329690       -6.7174045204       -5.8606973555
 H        12.2074754140      -10.5488133501       -1.1734039984
 H        11.0350292139      -11.2269385075       -2.3238505512
 H        10.2947689673       -9.2450066490       -0.0837204314
 H        10.4115221208      -10.9614610889        0.1973279763
 H         5.7221151032      -10.7610586762       -1.6684464380
 H         6.9532968845       -9.9469265366       -2.6835748183
 H         3.9300057735       -9.3875177811       -2.5603102054
 H         5.1483011972       -9.7218238837       -3.8621606977
 H         2.9537953617       -4.6292816976       -4.8255040249
 H         1.5613127993       -5.3004542524       -4.0548856575
 H         0.9985687047       -6.8193048173       -5.8240048901
 H         1.9882025015       -5.8407264150       -6.9665223608
 H        -2.2436060031       -3.5853280966       -7.3138422380
 H        -1.8100554051       -3.1085613569       -9.0482053289
 H        -2.1227230394       -0.6553636529       -7.8969346468
 H        -2.6824891863       -1.3980734903       -6.4744160655
 H        -6.7399377646        0.5762307015       -9.4751892204
 H        -5.1112533522        0.5410123208      -10.2047249335
 H        -6.0232116431        2.5282680233      -10.7925233103
 H        -5.0103703447        2.9734098605       -9.3347234490
 H        -8.1999179243        7.1144016308       -9.4090323784
 H        -9.2588153118        5.9729089569      -10.1255001262
 H        -7.3592494740        7.8400170665      -11.7645678724
 H        -9.1376090434        8.1550567003      -11.4507046691
 H        -6.7944572175        4.1642956992      -14.1091333965
 H        -6.1834742496        4.6585370284      -15.8243375230
 H        -6.7752768717        2.3327235425      -16.0507844198
 H        -8.0639707197        3.1846292590      -16.6769172359
 H       -10.4370755960       -0.8790615662      -13.5495999607
 H       -11.6336985487       -1.0620754647      -14.8090027698
 H       -11.9663439526        0.5679973419      -12.0744057089
 H       -12.6581431518       -1.1081331022      -12.4999299027
 H       -14.0444627066        5.3016047349      -13.2740059391
 H       -15.5535005931        4.4678916403      -13.2217356303
 H       -15.4969820016        4.6421248691      -15.5626322021
 H       -14.1971367382        3.5824940448      -15.6217452009
 H       -12.4832473348        5.3326112049      -19.8417578376
 H       -14.0766102066        6.2347277878      -19.8998618828
 H       -14.2576765728        3.2656323497      -20.0416046510
 H       -13.1396215229        3.9117636367      -21.1260275794
 H       -16.2450118627        2.4752571759      -25.0450116420
 H       -16.8790154130        1.2731813027      -23.7524182513
 H       -15.4386612293        1.0070526828      -24.6453477180
 H       -17.5485754654        4.2380664111      -21.3383709513
 H       -16.6474331739        2.8533736224      -20.6114929581
 H       -17.6081959577        2.5224797994      -22.0869950172
 H       -17.3819382618        4.0160035167      -23.9606489305
 H       -15.9024486923        4.9244533146      -24.4469260640
 H       -16.8120228629        5.6984860352      -23.1432713602
 H       -15.6886088783        6.4242825796      -17.0758235097
 H       -14.7072085818        7.6482693143      -17.7264189843
 H       -14.6734980547        7.5496195692      -16.0374036066
 H       -12.0823792915        7.3292159978      -16.4311623640
 H       -12.4644960324        7.4629413639      -18.1730868914
 H       -11.4029258058        6.1405393249      -17.5526737504
 H       -16.0684539872        1.9332675623      -14.1967859302
 H       -16.5119018961        2.3895395854      -12.5720806040
 H       -16.3020062383        0.6883463757      -12.9847197241
 H       -15.0075630143        1.6826168150      -10.5087219160
 H       -13.2675331329        1.0340365858      -10.8721878198
 H       -14.7271522415        0.1809910209      -11.1186178795
 H        -9.6809022859       -0.0809472809      -17.1545885947
 H        -8.3270230378        1.1585505974      -17.2948555476
 H       -10.0628082848        1.5954432433      -17.2429453683
 H        -7.4968836079       -0.3735435550      -15.4544106624
 H        -8.9758964769       -1.0552452486      -15.0634628667
 H        -8.0870823803       -0.2325404478      -13.7646846025
 H        -9.3166624976        7.9775879217      -15.4139845643
 H        -7.6461993681        8.4964090191      -15.4018851114
 H        -8.4913834458        8.6807199796      -13.8983743316
 H        -6.2984680699        7.9056942336      -13.8603447970
 H        -5.8017702064        6.5132912538      -14.8104158148
 H        -6.0170909876        6.3754716305      -13.0644436129
 H        -9.2227873003        4.9479699683       -8.3456230406
 H        -8.1206154780        6.0291232844       -7.3946363916
 H        -8.0548248621        4.4746414315       -7.0128643827
 H        -5.0165018414        5.1211743041       -9.0940131987
 H        -5.3652942114        4.4244061762       -7.5801091214
 H        -5.8881650828        6.2155336461       -7.8658576948
 H        -7.0476559283       -2.4038263118       -7.4216913632
 H        -6.2766666703       -2.1822911114       -8.9452314285
 H        -7.5446676021       -1.0887289683       -8.3462480269
 H        -6.0280584492       -0.6985919972       -5.4534622413
 H        -4.4284009998       -0.1360959550       -5.6498556156
 H        -4.9352143439       -1.9567297291       -5.6629146580
 H         2.1591031118       -2.3582917018       -7.0883008888
 H         2.3922589261       -3.0774071825       -8.6444432735
 H         2.7733342843       -3.9274996931       -7.0931225211
 H         0.8242252678       -5.7842648072       -8.5857675854
 H         0.9275864174       -4.4503275219       -9.6360307641
 H        -0.6457906928       -4.9968900339       -9.1464462736
 H         3.8345053007       -7.0778660032       -1.0545300488
 H         2.5543412852       -7.8720888292       -2.0252905592
 H         2.4473173757       -6.0679160802       -1.6970067641
 H         5.3957273706       -5.2722528857       -2.2072401510
 H         3.8389671394       -4.5381946437       -2.6399687369
 H         4.9947424318       -4.8799381612       -3.8965627306
 H         7.0318318628      -11.6543600156       -0.0328949901
 H         5.9912836588      -10.4913594901        1.0440810031
 H         7.6226463031      -11.1701009680        1.4896772001
 H         8.3761672628       -7.6735714855        0.3349964440
 H         9.1272298661       -8.6930900042        1.4949127402
 H         7.5500861448       -8.3008919332        1.7541816948
 H        14.9370604853       -8.9691244609       -2.7785418232
 H        14.0766978769      -10.4154709357       -2.5490144375
 H        14.0369117684       -8.9263210756       -1.3864171563
 H        12.9843439246       -6.9483169150       -1.4757544682
 H        11.8105442439       -6.6266735254       -2.8210588653
 H        13.5271983149       -6.4799841270       -3.0700537115
 H        10.3065055748      -10.9010253754       -9.0522047881
 H        11.5628929181      -10.9824795468       -7.8745219532
 H        11.2788100100       -9.5377104482       -8.7948152065
 H         8.2477411594       -8.8404548643       -8.6266105473
 H         7.5337366266       -9.5248758778       -7.2621959570
 H         8.0257537711      -10.4955120672       -8.5719290436
 Na        7.8465860196       -8.2966458241       -4.3494049665
 Na      -10.8914452192        4.0099910112      -13.8548342149
