232

 C         9.6151324960      -12.3166514556       -6.4752002640
 C         9.4895747994      -10.7601538566       -6.2427173273
 O         9.2035407004      -10.2960258365       -5.1286443463
 C         9.7071198953       -9.7758144652       -7.4286092962
 C        10.2775085163       -8.4698430288       -6.8522246896
 O         9.6144546443       -7.6814948640       -6.1896737987
 C        11.7455652326       -8.1191076997       -7.0706584947
 C        12.4844923937       -7.6417659017       -5.7514446982
 C        12.5540440396       -8.7342138463       -4.7698037775
 O        12.8422557033       -9.8525681292       -5.1943083455
 C        12.5824757710       -8.5005634745       -3.1777675784
 C        11.3100825466       -9.1897491325       -2.6469764171
 O        10.2225671337       -8.6849588058       -2.8015370967
 C        11.2759444066      -10.4205109704       -1.6422608423
 C        10.3593127836      -10.0315518530       -0.5494667508
 C         8.8662257263      -10.3920527738       -0.8858569948
 O         8.7274976667      -11.2949629376       -1.6670476613
 C         7.7883890666       -9.6522468216       -0.1876764087
 C         6.6223412572       -9.1614700512       -1.0467167034
 O         6.0428478890       -8.1916040509       -0.6878891699
 C         6.1053938859       -9.9181662253       -2.2682693004
 C         4.9630108909       -9.1437318567       -2.8286048665
 C         5.2561125152       -7.6906115865       -3.2732783659
 O         6.3646693137       -7.3583386071       -3.6135713888
 C         4.0966737228       -6.5378376472       -3.0992008867
 C         3.3572114981       -6.6959995376       -4.4830737379
 O         3.6410300968       -7.6438920702       -5.1962002058
 C         2.1369194495       -5.7805520345       -4.7358628644
 C         1.3963462635       -6.1006874833       -6.0314968621
 C         0.2876756184       -4.9966021657       -6.3239867565
 O        -0.7377480544       -4.9227055798       -5.7325743914
 C         0.5808308110       -3.9686101645       -7.5398573145
 C        -0.3956581252       -2.6253863511       -7.2358422560
 O         0.0892154117       -1.5665731564       -6.9029268893
 C        -1.8953639154       -2.8494400853       -7.5237766451
 C        -2.7323340136       -1.6408724133       -7.1659465493
 C        -3.9919286889       -1.3080309713       -8.1787302588
 O        -3.9524105708       -1.5388917790       -9.3403090681
 C        -5.4107352991       -0.7548336196       -7.4543395477
 C        -5.4315371403        0.6592530299       -8.1440681310
 O        -5.3517176022        1.6218370528       -7.3681802825
 C        -5.5582794972        0.8424413786       -9.5985415160
 C        -5.7852519017        2.3092738746       -9.9154638589
 C        -6.9926583406        2.8636343362       -9.1077118362
 O        -7.9920702361        2.2122608188       -8.8531429036
 C        -7.0415555466        4.4768864209       -8.7690495614
 C        -7.2052015290        5.3113935752      -10.0211570821
 O        -6.4281490682        5.0922709411      -10.9268030404
 C        -8.3783233530        6.2941533411      -10.2910374828
 C        -8.3490050409        7.2426824285      -11.5120889167
 C        -8.7041508059        6.6289240739      -12.8731263984
 O        -9.7299477604        5.9160578794      -12.6931963541
 C        -7.9470676074        6.6601299872      -14.2792842989
 C        -8.2451847015        5.2595226395      -15.0869859716
 O        -9.3616057863        5.0437293115      -15.4777657833
 C        -7.1480915176        4.2136481976      -15.3719763161
 C        -7.8411535780        2.9985974673      -15.9722683081
 C        -8.8005553843        2.3862901137      -14.9484899040
 O        -8.9240029690        2.9492974510      -13.8614957004
 C        -9.3842297738        0.9963154886      -15.2467607032
 C       -10.8693517138        0.9912544921      -14.5841724348
 O       -11.4339104990        2.0239160692      -14.6586161974
 C       -11.3750324800       -0.1866405338      -13.8304679926
 C       -12.3694839582        0.2678252723      -12.6829195346
 C       -13.6409332327        0.7626048526      -13.3831050626
 O       -14.0147728045        0.3592031090      -14.4855927189
 C       -14.6016088942        1.7420733873      -12.5844976723
 C       -13.8121736151        3.1153950107      -13.0016669076
 O       -12.6649089302        3.1801989182      -12.7054612065
 C       -14.4323882770        4.2349167011      -13.7686554681
 C       -14.4351485714        4.2753262425      -15.2864476054
 C       -13.4069347378        5.3101239741      -15.7809242135
 O       -12.5162684997        5.7812367215      -15.0935986171
 C       -13.5553502086        5.8628184827      -17.2603571251
 C       -13.4739058501        4.7269382887      -18.2499680120
 O       -13.3681930226        3.5930791543      -17.8765298932
 C       -13.4262556361        5.2063719927      -19.6747159925
 C       -14.1248466171        4.1978706617      -20.5844727208
 C       -15.1003271899        4.8661016010      -21.5690985281
 O       -15.1853281036        6.1105872531      -21.6503162813
 C       -16.1153536757        3.9766628988      -22.4131127590
 C       -15.3810367655        2.6790912692      -23.0279438575
 O       -14.1230801151        2.6182135290      -23.0702657326
 C       -16.2124692303        1.4627474668      -23.3939223077
 C       -17.4887695369        3.5413162205      -21.5472142234
 C       -16.5462989445        4.9065600272      -23.5524072104
 C       -14.8965147223        6.6386644453      -17.3611896953
 C       -12.3855686961        6.9122894544      -17.4057067645
 C       -16.0772782541        1.7419906039      -13.2058385991
 C       -14.6643028083        1.5053462998      -11.1097880975
 C        -9.6955031787        0.7751318610      -16.7793172802
 C        -8.4396733298       -0.1263647899      -14.7797316015
 C        -8.7482689205        7.6627750504      -15.1161279804
 C        -6.4912034627        7.0483031691      -14.2583386415
 C        -8.2559603734        4.6634956429       -7.8214800974
 C        -5.7465530132        4.8820014969       -7.9718599400
 C        -6.5745554202       -1.6374169295       -7.9611571617
 C        -5.3757453878       -0.7138333805       -5.9365359129
 C         2.0703924273       -3.5732533498       -7.5992600355
 C         0.0466407928       -4.6094747028       -8.7941450352
 C         3.0189606414       -6.8411917206       -1.9378001997
 C         4.6240918196       -5.0881858734       -2.8029415794
 C         7.2134960738      -10.7727720104        0.7515097829
 C         8.2028715558       -8.3991567092        0.6721571028
 C        13.8291273643       -9.0331092541       -2.6146513147
 C        12.4966076833       -6.9991334467       -2.7029024263
 C        10.5950150887      -10.2920237081       -8.5296509934
 C         8.2948657632       -9.5349266659       -8.0216246434
 H        10.3419287177      -12.5086861675       -7.2399721479
 H         8.7367537493      -12.8486290831       -6.6288771511
 H         9.9235467402      -12.8516019279       -5.5909000526
 H        12.0006397101       -7.4051674538       -7.9644441892
 H        12.3758379348       -8.9912878501       -7.3511488683
 H        11.9734597146       -6.6794566027       -5.5159850152
 H        13.5307032008       -7.4152492114       -6.1702217374
 H        12.2880076348      -10.5633673357       -1.2784315639
 H        10.9609550980      -11.2808289996       -2.1528803668
 H        10.5862394796       -9.0749867462       -0.1672630927
 H        10.5924242005      -10.7591362824        0.2373759050
 H         5.6533914034      -10.9109884482       -1.9367720854
 H         6.8992865021      -10.0828808565       -2.9754378330
 H         4.2244126067       -9.0413255050       -2.0079252784
 H         4.4758121348       -9.5838934874       -3.7049743516
 H         2.4571803306       -4.7431526351       -4.8051249819
 H         1.4208173175       -5.8118463566       -3.9819068164
 H         0.8312914998       -7.0568474039       -5.9969667605
 H         2.1411956610       -6.1525686630       -6.7671545797
 H        -2.2421155611       -3.7411646330       -6.9729067439
 H        -1.9261945899       -2.9061630886       -8.6989158332
 H        -2.1247856124       -0.7262264342       -7.2531933044
 H        -3.2237495977       -1.6996153240       -6.2040242570
 H        -6.3878783654        0.3051754688       -9.9646448694
 H        -4.6241692165        0.4949780539      -10.2085937756
 H        -6.0875496871        2.4329411325      -10.9207650146
 H        -4.9650739007        3.0069677696       -9.6480976876
 H        -8.5501781217        6.8984843024       -9.4208799118
 H        -9.1226136486        5.5880765243      -10.2960264064
 H        -7.2935835296        7.6379853759      -11.5758940955
 H        -8.8903738002        8.1653718898      -11.2368491023
 H        -6.4426244116        4.0232860943      -14.5537577057
 H        -6.5995845321        4.5605829053      -16.2231741967
 H        -7.0631630318        2.2959363370      -16.3738558375
 H        -8.2873226076        3.2859647403      -16.8668881138
 H       -10.5991086753       -0.8621061190      -13.5865952697
 H       -12.0683045612       -0.7592867079      -14.5512609670
 H       -11.8749633299        0.9818726609      -12.0138474261
 H       -12.9585749312       -0.6550099631      -12.2296055852
 H       -13.8742596529        5.1510117950      -13.4973564705
 H       -15.4189155878        4.5096225473      -13.4043868856
 H       -15.4090981637        4.4908470034      -15.6381027343
 H       -14.2366059028        3.2642980495      -15.6457813035
 H       -12.3680843306        5.2209884513      -19.9680168387
 H       -13.9646995046        6.2107317585      -19.8723460083
 H       -14.6790900004        3.5292359081      -19.8474586973
 H       -13.4445948489        3.5353997390      -21.1048519831
 H       -16.4874041758        1.3512720247      -24.4991022161
 H       -17.1227675466        1.4455294673      -22.8577007690
 H       -15.7230751410        0.6115794941      -22.9766910402
 H       -17.6592039932        4.4201380117      -20.9743122315
 H       -17.1575543146        2.6770357620      -20.9372023418
 H       -18.1824418087        3.2876833812      -22.3471609822
 H       -17.1165947254        4.2167654257      -24.2934968830
 H       -15.6521661325        5.1851667807      -24.1286919140
 H       -17.1635829256        5.8169596423      -23.2564485807
 H       -15.6046904247        6.0688389470      -17.9561974425
 H       -14.8611551107        7.5691533509      -17.8927831340
 H       -15.3263464842        6.7179951735      -16.3404649784
 H       -12.6459818233        7.7668299022      -16.8544472611
 H       -12.1615820460        7.3459096315      -18.4078800987
 H       -11.5087530702        6.5244175034      -16.9017509466
 H       -16.1846406963        2.5464814659      -13.8546311437
 H       -16.8230731583        1.7910578559      -12.4390646782
 H       -16.2461181099        0.7870618570      -13.6671072647
 H       -15.1302834460        2.3823908857      -10.4661501468
 H       -13.6161921980        1.4296535932      -10.7212558463
 H       -15.2022587289        0.6090445251      -10.8127703336
 H       -10.3272844262       -0.1099431602      -16.9856344002
 H        -8.7025998519        0.5838627807      -17.2935852323
 H       -10.1856874943        1.6904367976      -17.1635998454
 H        -7.4573770762       -0.0933396339      -15.2162042598
 H        -8.9207839070       -1.0011817744      -15.1603865555
 H        -8.2214166890       -0.1597307097      -13.6870670125
 H        -9.7623389775        7.4134470176      -15.0952064078
 H        -8.4337191419        7.4862023814      -16.1734110817
 H        -8.5609256462        8.7734207808      -14.8682420704
 H        -6.1829490760        8.1250236483      -14.1388387774
 H        -5.9715159154        6.5731859016      -15.1389207978
 H        -6.0131714001        6.6065004929      -13.3951138342
 H        -9.1471370679        4.3473135235       -8.3446421487
 H        -8.3239635652        5.7008961160       -7.5708818166
 H        -8.2459015070        4.0032538854       -6.9324286780
 H        -4.9924241856        4.9987888821       -8.8198788814
 H        -5.4239073063        4.2546357084       -7.2022652230
 H        -6.0237931052        5.9052174238       -7.6311176639
 H        -6.4306302956       -2.7269909815       -8.1707507549
 H        -7.0705260462       -1.2526093313       -8.8275506860
 H        -7.3900687786       -1.5636455299       -7.1874634312
 H        -6.2973954904       -0.3049151141       -5.6240720224
 H        -4.6234805432       -0.0812477835       -5.6630941448
 H        -5.1743562010       -1.6939458509       -5.4843610370
 H         2.6752785496       -4.1049985662       -6.9337572394
 H         2.2488681529       -2.4701643223       -7.3935686180
 H         2.5677275466       -3.8880228696       -8.4923295108
 H         0.6602044740       -5.4520130165       -9.1116290937
 H         0.0977513478       -3.8891942199       -9.5758748756
 H        -0.9835085982       -5.0727691970       -8.7123243123
 H         3.5504037827       -6.7223659565       -0.9705348807
 H         2.5265171869       -7.7644964360       -2.0488575244
 H         2.2418241270       -6.1271463505       -2.0622034199
 H         4.4279014668       -4.7325791684       -1.7387272018
 H         4.1875848356       -4.3789553581       -3.5550853735
 H         5.6478659652       -4.8908208177       -3.1009573365
 H         7.0068750768      -11.6677392731        0.2322135198
 H         6.5340903837      -10.2975150372        1.4487545706
 H         8.0725780023      -11.0178785011        1.4356953512
 H         8.8618474248       -7.7179470406        0.1933459989
 H         8.6094367120       -8.7883522853        1.6237031758
 H         7.3443862190       -7.7961892425        0.9510183462
 H        14.5781693925       -8.3163632027       -2.8947325992
 H        14.1263803839      -10.0965798030       -2.9176216641
 H        13.7231909993       -9.2018702410       -1.5137814363
 H        12.7776005890       -6.9364442350       -1.6425599989
 H        11.4763501350       -6.5778151602       -2.8819635394
 H        13.2177710215       -6.3447718326       -3.1811282207
 H        10.1587506147      -10.9788825944       -9.2761545188
 H        11.3925158727      -10.9053560897       -8.0091379676
 H        11.1141914839       -9.4292890837       -8.9600223383
 H         8.3988793001       -9.0399335896       -8.9636868944
 H         7.7279299987       -8.8136007326       -7.4878931667
 H         7.5956411931      -10.3313983434       -8.1704314918
 Na        8.4160573178       -8.5272872393       -4.1072326771
 Na      -10.8792531360        4.3473684906      -13.8066395534
