232

 C         9.6404500558      -12.2029420924       -6.6147361750
 C         9.5938348065      -10.7572380285       -6.2606232260
 O         9.2645420042      -10.4604831959       -5.1544548206
 C         9.7656949782       -9.7299960683       -7.5231785771
 C        10.3433764970       -8.4690368648       -6.8220006542
 O         9.6000406269       -7.7324155828       -6.1902828474
 C        11.8813273389       -8.1994800801       -7.1099521142
 C        12.6046061049       -7.5666177098       -5.8343233504
 C        12.6252563478       -8.6966982921       -4.7821494937
 O        12.6172050576       -9.8314571923       -5.1548009503
 C        12.5533334675       -8.4476867256       -3.1991101118
 C        11.2375126834       -9.0347743220       -2.5374971042
 O        10.1407655266       -8.5898226363       -2.6580019284
 C        11.3727406526      -10.3504686446       -1.6388724176
 C        10.4455789740      -10.2130001975       -0.4932333421
 C         8.9380859970      -10.4406779484       -1.0035595205
 O         8.5827402976      -11.3683127834       -1.7089106756
 C         7.8607767333       -9.5970879693       -0.1069182392
 C         6.6001218323       -9.0808097915       -1.0159436086
 O         5.9417409901       -8.1112248737       -0.6911743220
 C         6.1467646928       -9.8598344432       -2.2687757237
 C         4.9317523730       -9.1570952190       -2.9325521995
 C         5.2759681222       -7.7078365954       -3.1059693539
 O         6.2693200774       -7.3691582636       -3.7571803990
 C         4.1266414196       -6.6772469181       -3.0889893623
 C         3.2432751487       -6.7978602635       -4.5025768853
 O         3.6459176980       -7.5343894633       -5.3781405023
 C         2.1714311269       -5.7948150038       -4.6781375903
 C         1.4486560665       -6.0541802925       -5.9950554566
 C         0.3513105545       -4.9494231553       -6.4130316832
 O        -0.7352991951       -5.0796773280       -5.8214102321
 C         0.5749044494       -3.9689985472       -7.5459835841
 C        -0.4355039774       -2.6491794189       -7.2516697919
 O         0.1344170004       -1.6729246223       -6.7920419829
 C        -1.9137902091       -2.7825489462       -7.4757350061
 C        -2.7788899412       -1.5666715292       -7.0444608280
 C        -3.9279060289       -1.4173882612       -8.0158485328
 O        -3.8096873295       -1.4942302937       -9.1993878989
 C        -5.3042466665       -0.8100604468       -7.4740879501
 C        -5.4224224551        0.6494074058       -8.1156908998
 O        -5.4130551773        1.5475982702       -7.2982945980
 C        -5.5436151854        0.9009905516       -9.6793931255
 C        -5.7935441455        2.3755694848      -10.0653103632
 C        -7.0748074770        2.9337363124       -9.1606483672
 O        -7.8492167783        2.0570716175       -8.8680979895
 C        -7.1115664592        4.4352960468       -8.7514002949
 C        -7.2123497569        5.2428989801      -10.1215207991
 O        -6.3281389864        4.9887017520      -10.9078594846
 C        -8.3140709392        6.3709911453      -10.3531341413
 C        -8.1041725327        7.2600891981      -11.5720873338
 C        -8.7060546417        6.4715437623      -12.8220751310
 O        -9.7329539320        5.8749147807      -12.6827648411
 C        -8.0262561273        6.6122336273      -14.2837387182
 C        -8.2608543695        5.2762887958      -15.1054027259
 O        -9.3580738491        5.0975565852      -15.5272806833
 C        -7.1474763114        4.2927536861      -15.4130759508
 C        -7.7916458389        2.9661331353      -16.0145707673
 C        -8.6555027420        2.3208130523      -14.9121472496
 O        -8.8604955649        2.8637794361      -13.7936212087
 C        -9.4470401763        0.9611043947      -15.3434971839
 C       -10.8480839221        1.1116983347      -14.5213861020
 O       -11.5402388584        2.1188198961      -14.7196804975
 C       -11.3692146633       -0.1604068455      -13.7485366072
 C       -12.4271949752        0.2142044909      -12.6520937843
 C       -13.7328529724        0.6677437948      -13.3002152375
 O       -13.9329991636        0.3566742316      -14.4662505391
 C       -14.6440935984        1.8296997262      -12.6258913439
 C       -13.8486786354        3.1626983886      -12.9830853441
 O       -12.6731105570        3.1421694990      -12.5363216240
 C       -14.3993923712        4.3100625790      -13.7643733566
 C       -14.3789121202        4.2226135340      -15.3662773620
 C       -13.5046560236        5.3680636123      -15.8433113096
 O       -12.6687101169        5.8358110960      -15.0626573371
 C       -13.5849801025        5.8983753583      -17.2689479118
 C       -13.3045759489        4.7509680450      -18.3616053197
 O       -13.2105793384        3.5992454854      -18.0212255106
 C       -13.4139272523        5.0940688669      -19.7864402075
 C       -14.3445698158        4.1357823151      -20.5839660169
 C       -15.2235612273        4.8548525939      -21.5289893365
 O       -15.0682045094        6.0560284297      -21.7292877257
 C       -16.1379479700        3.9862638591      -22.3813481965
 C       -15.3972497771        2.6540141758      -22.8016619764
 O       -14.2258530613        2.7475288075      -23.0353729765
 C       -16.2113257434        1.4596669409      -23.2131800863
 C       -17.3554956558        3.7177842964      -21.5149261882
 C       -16.5580370638        4.9037847128      -23.5781820847
 C       -14.9852784370        6.5378965908      -17.5005967450
 C       -12.4272997627        6.9193794544      -17.4495559798
 C       -16.0887584502        1.8772726426      -13.1618781078
 C       -14.7437739596        1.5181585466      -11.1175945119
 C        -9.7154176186        0.8019279493      -16.7799980254
 C        -8.5898077978       -0.1762671975      -14.7348638032
 C        -8.8884960263        7.6946866607      -15.1249313806
 C        -6.6023698538        6.9775240990      -14.1502559824
 C        -8.3467149931        4.6331007034       -7.6929875408
 C        -5.7523865747        4.7506577482       -7.9677068257
 C        -6.5338859376       -1.6081737525       -7.9276929461
 C        -5.4150403154       -0.6403107971       -5.9310783452
 C         2.0066173559       -3.4847784232       -7.5987759253
 C         0.0154294836       -4.7441876650       -8.7561613548
 C         3.1561714680       -6.9488360911       -1.9389281224
 C         4.7873453612       -5.2846387639       -2.9855668242
 C         7.2786327347      -10.8031486790        0.8225882514
 C         8.2753108976       -8.4374644999        0.7825800387
 C        13.9121802992       -9.0982039699       -2.6406620496
 C        12.4690929644       -6.9731698135       -2.8502476248
 C        10.5596095076      -10.3022061713       -8.7357759276
 C         8.2708850399       -9.5590195820       -7.9262294140
 H        10.4416544197      -12.5335953814       -7.3184527191
 H         8.6536204352      -12.3743702866       -7.0614791565
 H         9.5047996597      -12.8559460270       -5.8257619070
 H        12.1042886517       -7.6999828936       -7.9975995834
 H        12.4682187986       -9.1406210554       -7.2342066877
 H        12.0476101068       -6.5863070032       -5.6280614772
 H        13.6034308254       -7.3169826332       -6.2190350331
 H        12.4603761056      -10.3429459107       -1.3544922375
 H        11.2379190608      -11.2009879704       -2.3327434803
 H        10.5808197711       -9.2177136915       -0.1166730534
 H        10.6319020641      -10.8609260462        0.3473296648
 H         5.8953310164      -10.8832816453       -2.0941915925
 H         7.0483034980       -9.7690301583       -2.9508689118
 H         4.0023044984       -9.2747316964       -2.2866868636
 H         4.7298945815       -9.4463817090       -3.9654440119
 H         2.6220098376       -4.8124997969       -4.6231697304
 H         1.4238518384       -5.8717930491       -3.9223687444
 H         0.8595821398       -6.9943298292       -5.8376215684
 H         2.2124508032       -6.2395493384       -6.7259534372
 H        -2.3204120763       -3.6259956426       -6.9329387574
 H        -2.0251987399       -2.8765025419       -8.4862976932
 H        -2.4230215919       -0.4925748814       -7.0734727438
 H        -3.3369173927       -1.7872069848       -6.1332120770
 H        -6.2909528254        0.2652537449      -10.1695836335
 H        -4.6711265517        0.6114093619      -10.0794428512
 H        -6.0759342685        2.5072911544      -11.1295641503
 H        -4.9511318880        2.9809624207       -9.8403226723
 H        -8.3828833406        6.9298528943       -9.3657504789
 H        -9.2306965938        5.8115654193      -10.4347151899
 H        -7.0879624678        7.6630639718      -11.7232326762
 H        -8.6776789592        8.2540084118      -11.4033651070
 H        -6.5423110109        4.0897099747      -14.4337075964
 H        -6.4283225379        4.7301721713      -16.0977374386
 H        -7.1636929182        2.2795124843      -16.5629542740
 H        -8.4762902927        3.2758395107      -16.8067564790
 H       -10.5258526188       -0.6542076822      -13.2902615514
 H       -11.7547337454       -0.8995343615      -14.5379389220
 H       -11.8791869055        1.0315421858      -12.1156395432
 H       -12.7833538365       -0.6269133606      -12.0681546373
 H       -13.8429869646        5.2490298444      -13.5236258122
 H       -15.4261322276        4.6030909382      -13.4154229322
 H       -15.3348677077        4.0855655133      -15.7923120843
 H       -13.8571793139        3.3100712596      -15.5837646606
 H       -12.4822026979        5.0764621182      -20.3567648473
 H       -13.9104856250        6.0723166393      -19.9175667898
 H       -14.9702711742        3.4902589521      -19.9441135297
 H       -13.7275452925        3.4785167556      -21.1649783294
 H       -16.2945330648        1.6802649884      -24.2187385153
 H       -17.2885422906        1.3914281770      -22.8724916750
 H       -15.8015115499        0.4632580699      -22.9857630311
 H       -17.4744400404        4.6932865717      -20.9642965113
 H       -17.0359876325        2.9155423260      -20.8613015942
 H       -18.1240267852        3.5181123082      -22.2639070286
 H       -17.0474893586        4.2860295851      -24.3962508979
 H       -15.5251946747        5.2301950506      -24.0910854035
 H       -17.2129831081        5.7465529473      -23.2924912335
 H       -15.7595436099        5.7791300097      -17.7759697084
 H       -14.9434146618        7.2027602415      -18.4017498999
 H       -15.3081192473        7.0009431002      -16.6127541411
 H       -12.4239184014        7.8305307144      -16.8404104079
 H       -12.4698005917        7.3317104100      -18.4606213410
 H       -11.4856709512        6.3940299317      -17.2480845283
 H       -16.0578058953        2.3999908015      -14.0654292977
 H       -16.7929674397        2.2201903315      -12.4612203776
 H       -16.2994594848        0.8156566825      -13.3187753804
 H       -15.1605211743        2.2634097394      -10.3847078735
 H       -13.7811921391        1.2354103762      -10.6992609566
 H       -15.3740617216        0.5912713128      -11.0578316457
 H       -10.1816827645       -0.2574166525      -17.0454667708
 H        -8.7521194724        0.7490984722      -17.2231173856
 H       -10.3028722348        1.6047351141      -17.1566475473
 H        -7.6336961350       -0.2359415965      -15.1881866070
 H        -9.0630357919       -1.1643675900      -14.7742049163
 H        -8.3298477735        0.1331887473      -13.7139823778
 H        -9.8726930540        7.1899092795      -15.4220350913
 H        -8.3666836714        7.9998598929      -16.0462748599
 H        -9.1178327399        8.5945397233      -14.5066324559
 H        -6.3278426263        8.0048156352      -13.8432660424
 H        -5.9779546192        6.6848824630      -15.0481267916
 H        -6.1969974674        6.3773769746      -13.3347996586
 H        -9.2578799897        4.4947848085       -8.1657948317
 H        -8.3263946417        5.7280327460       -7.3324022158
 H        -8.4043654199        3.8955935025       -6.9318942391
 H        -5.0051538146        5.1604079255       -8.7169860992
 H        -5.4009998629        3.8847235395       -7.4402704930
 H        -6.0588518778        5.5352410326       -7.2254047238
 H        -6.3547590856       -2.7124662840       -8.1680096067
 H        -7.1137130417       -1.2281817986       -8.7538611997
 H        -7.2472554880       -1.5731722878       -7.1273139138
 H        -6.4487205302       -0.1335062335       -5.8305554664
 H        -4.6660861759        0.0724694018       -5.6313780871
 H        -5.2630053470       -1.4997414477       -5.3374757917
 H         2.7312379833       -4.0447827836       -7.0298655117
 H         2.0269095871       -2.4530327136       -7.2882280416
 H         2.4446258185       -3.5720931721       -8.5827901444
 H         0.3660205460       -5.7706449661       -8.8807201972
 H         0.3278678460       -4.2021711515       -9.6227903027
 H        -1.0344861421       -4.8406637401       -8.7305442173
 H         3.7988823222       -6.9102447463       -1.0503200631
 H         2.6582748147       -7.8610587487       -2.0627437006
 H         2.3354243938       -6.1840273458       -1.8857159517
 H         4.9904581869       -4.9687676333       -1.9731005860
 H         4.1690961215       -4.5156550497       -3.4845411352
 H         5.6292619554       -5.1513648714       -3.6033636178
 H         7.1812395587      -11.7110438375        0.2846402978
 H         6.4453323027      -10.4618512152        1.4165416098
 H         8.0521290141      -10.9760696995        1.6678942045
 H         8.4582037212       -7.5263424076        0.2380676083
 H         9.1034575688       -8.7662211287        1.3551675945
 H         7.5001902846       -8.1202422162        1.4430936689
 H        14.7568388483       -8.6138214487       -3.1684065040
 H        13.9213541369      -10.1627822075       -2.7027976358
 H        13.9299427253       -9.0423250514       -1.5634415051
 H        12.6898196470       -6.7761754403       -1.7989133014
 H        11.5974128656       -6.4466914283       -3.2041987178
 H        13.3775623646       -6.5293894774       -3.3605024606
 H         9.9639354641      -10.9575261093       -9.3721582890
 H        11.4529474608      -10.9138117596       -8.4464472696
 H        10.8776642656       -9.4272724076       -9.2775745981
 H         8.1048787846       -9.0994574438       -8.8503116630
 H         7.6238507733       -9.0294609142       -7.2740976054
 H         7.7493006842      -10.5480560819       -7.9982886065
 Na        8.4329354864       -8.2395793833       -3.9444258959
 Na      -10.9997588934        4.4858416631      -13.8199934725
