232

 C         9.6800208230      -12.2769197862       -6.7859513090
 C         9.5970698015      -10.8509861123       -6.3190069638
 O         9.3487153348      -10.4123155945       -5.2302713036
 C         9.7669009017       -9.7532488395       -7.5200172464
 C        10.3955768434       -8.4341039502       -6.9320625983
 O         9.7676477612       -7.7807535970       -6.0849123593
 C        11.8547915900       -8.1609344909       -7.1327416052
 C        12.5375631139       -7.6288846187       -5.8093783772
 C        12.5125062772       -8.7368588132       -4.7450270514
 O        12.4262927630       -9.9176223465       -5.0439832708
 C        12.5693024878       -8.3236380964       -3.2373820513
 C        11.3507607180       -9.0330333505       -2.5535598284
 O        10.2571141462       -8.4442966451       -2.5296680613
 C        11.4616940534      -10.2879679756       -1.6620148750
 C        10.3801680245      -10.4231543532       -0.4896935867
 C         8.8947117980      -10.4141831922       -0.8312898963
 O         8.5699377873      -11.1941609033       -1.7345936673
 C         7.7800327926       -9.6544059967       -0.0055346852
 C         6.5556982517       -9.1379614499       -0.9746024035
 O         6.0162103984       -8.0671329835       -0.6624313203
 C         6.2886945991       -9.8924606073       -2.2437133342
 C         5.0074810112       -9.3281790497       -3.0176527463
 C         5.2398398152       -7.8197080247       -3.3963573829
 O         6.3501161909       -7.4010584505       -3.7500927028
 C         4.1081689732       -6.7373824671       -3.1443520161
 C         3.3177276392       -6.7356647767       -4.5216163310
 O         3.6505715336       -7.4694603325       -5.4243263883
 C         2.1467784615       -5.7593192586       -4.6736642116
 C         1.4211138241       -6.0228973530       -6.0515758179
 C         0.2762814249       -5.0157207443       -6.3252323167
 O        -0.8021849563       -5.2102327456       -5.8250034824
 C         0.4998906465       -3.8973913539       -7.5002907796
 C        -0.3647137755       -2.7109794969       -7.1660241272
 O         0.1200380316       -1.7190496253       -6.6862847497
 C        -1.9063831771       -2.8317130877       -7.4903354706
 C        -2.7166918430       -1.6084795819       -6.8573088034
 C        -3.9449083368       -1.3275931688       -7.8861491277
 O        -3.6691572986       -1.5612008689       -9.0568850839
 C        -5.3716022988       -0.7242132991       -7.5153095585
 C        -5.4298771296        0.7310370794       -8.0619733826
 O        -5.4474317298        1.7061586103       -7.3553682757
 C        -5.4658691985        0.9640448671       -9.5878621996
 C        -5.8083106843        2.3712130682       -9.9870200660
 C        -7.0816247132        2.8435151130       -9.1971658362
 O        -7.8818790901        2.0415739368       -8.8446494167
 C        -7.1367811000        4.3718869303       -8.8090008337
 C        -7.1261892518        5.2129796815      -10.0478691356
 O        -6.3484512745        5.0397903531      -10.9779229934
 C        -8.1674037535        6.3525836329      -10.2893533210
 C        -7.8733290956        6.9776705924      -11.7025234624
 C        -8.7270685038        6.4172633825      -12.8149404533
 O        -9.7618671022        5.8536731481      -12.5919812613
 C        -8.0882020148        6.5605041637      -14.2442556781
 C        -8.3678790018        5.3080005546      -15.0768494968
 O        -9.4685888177        5.0464770803      -15.6336236395
 C        -7.1994205174        4.3903342359      -15.4112312425
 C        -7.7449433940        2.9957956157      -15.9235359399
 C        -8.6680044258        2.3179790969      -14.9487881525
 O        -8.7276836920        2.7071956181      -13.8156457002
 C        -9.4887335961        0.9890016831      -15.2644802237
 C       -10.8785846447        1.1277841814      -14.5452201294
 O       -11.5991367812        2.1190849121      -14.6866888327
 C       -11.3880980712        0.0164760356      -13.6331627902
 C       -12.4633722305        0.2633354657      -12.6414439688
 C       -13.7655565436        0.7324876616      -13.4339336782
 O       -14.0814643586        0.3203567936      -14.4939796392
 C       -14.6185080459        1.7670977715      -12.6998094831
 C       -13.8351602626        3.1419555749      -12.8411666724
 O       -12.6709742256        3.3109126706      -12.4143935684
 C       -14.5063794252        4.2121058072      -13.6292939473
 C       -14.1974820637        4.1257569391      -15.2390944275
 C       -13.4151059029        5.3260481256      -15.7867510445
 O       -12.6595041877        5.9287870848      -15.0380855614
 C       -13.5773691044        5.9069739612      -17.3773729945
 C       -13.3440221212        4.7232383538      -18.3865655385
 O       -12.9944337054        3.5813302180      -18.0254965953
 C       -13.3306770100        5.0792434160      -19.8436436554
 C       -14.3667187364        4.0905569881      -20.4813784452
 C       -15.1364510829        4.9020659305      -21.6030556217
 O       -15.0101561307        6.0634829158      -21.7602803205
 C       -16.2228524633        4.0436493137      -22.3976775635
 C       -15.4820894391        2.8102758578      -22.9616433893
 O       -14.2873274184        2.7503783337      -22.9740284717
 C       -16.2438538111        1.4864655819      -23.0918693988
 C       -17.4851171972        3.8251612580      -21.3771155176
 C       -16.6130534089        4.7750361503      -23.7597576141
 C       -15.0364461843        6.4658006087      -17.6814388050
 C       -12.4767917062        6.9982825385      -17.5856159743
 C       -16.1032881059        1.9224655610      -13.2765602466
 C       -14.7366299306        1.5739097523      -11.0743504870
 C        -9.7243446950        0.8458020832      -16.7554098282
 C        -8.6775905125       -0.2241664205      -14.6707765274
 C        -8.8969667676        7.7844426162      -14.9456197609
 C        -6.5723879014        6.9612500557      -14.1338527373
 C        -8.3287053745        4.5734965428       -7.8073394861
 C        -5.8930162645        4.6609913372       -8.0304777019
 C        -6.5047044877       -1.7477450571       -8.0091862875
 C        -5.3576578074       -0.5888805533       -5.9533032974
 C         1.9175931946       -3.4038819628       -7.7031270766
 C         0.0837758746       -4.8201694353       -8.8100836681
 C         3.2430735831       -6.9882079397       -1.8543686725
 C         4.8263597313       -5.3910479369       -3.1345708266
 C         7.2253911475      -10.7502490915        0.8959067771
 C         8.3541505011       -8.5686819344        0.7776883873
 C        13.8807107460       -9.0570291776       -2.7366129199
 C        12.5301861402       -6.8116721293       -3.0049791778
 C        10.4788306551      -10.2865731358       -8.7624329295
 C         8.2696013688       -9.4832567165       -7.8100042895
 H        10.6790685590      -12.4800451447       -7.1524117738
 H         8.9193693755      -12.4608878135       -7.6006687789
 H         9.2818724230      -13.0511408333       -6.0768278897
 H        11.9492656733       -7.4113834920       -7.8432013041
 H        12.4400180397       -8.9381581581       -7.5348504678
 H        11.9326436497       -6.7779351682       -5.5445179579
 H        13.5055629961       -7.2924140717       -6.0821814702
 H        12.5053745477      -10.2899027258       -1.3472861654
 H        11.3871023194      -11.1311833087       -2.4591073741
 H        10.6081377452       -9.6963504662        0.3502537552
 H        10.5045299675      -11.3819802744        0.0114699454
 H         6.0261022754      -10.8922690205       -1.9933966516
 H         7.2385768123       -9.8976134844       -2.8538597076
 H         4.1230173729       -9.4429335081       -2.3865411917
 H         4.9038253120       -9.9457515327       -3.9481445428
 H         2.4863223922       -4.7236185531       -4.6092469499
 H         1.3779630360       -5.9436293355       -3.8569892693
 H         1.1198077120       -7.0527474458       -6.1463150062
 H         2.2173879670       -5.7586673973       -6.8165885916
 H        -2.3301784561       -3.7296494797       -7.1071324871
 H        -2.0349242537       -2.8158149783       -8.5156618355
 H        -2.2676329408       -0.6180233586       -7.0525351343
 H        -3.0626586982       -1.7763561670       -5.8126212285
 H        -6.2343046611        0.3180634193      -10.0738718265
 H        -4.5724976375        0.6057475285      -10.0662413751
 H        -6.1224210424        2.5096851374      -11.0592869687
 H        -5.0223288996        3.0868119265       -9.8007338167
 H        -7.9151981130        7.0857832422       -9.4886003752
 H        -9.2832783252        6.0132402710      -10.1031231740
 H        -6.8487500053        7.2009703178      -11.9051027863
 H        -8.2600925944        8.0246796147      -11.6545122148
 H        -6.6420393956        4.1824518493      -14.4835988379
 H        -6.4166013585        4.8369603076      -16.1293378401
 H        -6.9800340357        2.2613708183      -16.0468770571
 H        -8.1032413368        3.0778665351      -17.0134855474
 H       -10.4752460355       -0.3340739539      -13.0141018248
 H       -11.6344556798       -0.8354608947      -14.2064436130
 H       -12.0468764423        1.0385251438      -11.9994253853
 H       -12.6629074318       -0.6233226554      -12.1672094051
 H       -14.2241874767        5.2185682072      -13.3022889739
 H       -15.6091349202        4.2794577982      -13.5551998825
 H       -15.2146812008        4.0840525581      -15.7036373004
 H       -13.7695841928        3.1531770509      -15.4649346819
 H       -12.4055873845        4.8889380404      -20.3942113450
 H       -13.6505672375        6.0377132056      -20.1286847348
 H       -15.1583588244        3.8344661393      -19.8303447546
 H       -13.8177838210        3.1617712983      -20.7271240065
 H       -16.5930494935        1.3251712069      -24.0974058045
 H       -17.1624675988        1.3411947213      -22.4992080685
 H       -15.5618779853        0.7127069342      -22.7194093839
 H       -17.7813466205        4.8284347175      -20.9942715903
 H       -16.9994184540        3.2432114525      -20.6083505844
 H       -18.2381022323        3.3674418421      -22.0319380267
 H       -17.1872910782        4.1868682770      -24.4521592807
 H       -15.7114830044        5.0209324051      -24.2566850732
 H       -17.1946313928        5.6734784437      -23.4872161399
 H       -15.8479309786        5.7655726062      -17.3845387801
 H       -15.1214013100        6.5896235644      -18.7699466546
 H       -15.2312452419        7.3742146219      -17.1211188468
 H       -12.4247755553        7.8057047709      -16.7965524957
 H       -12.7516573848        7.5663527231      -18.4429988221
 H       -11.4715919194        6.5758629579      -17.6457751405
 H       -15.9809342347        1.9050515969      -14.4022195297
 H       -16.6178102399        2.8030740944      -12.8262087029
 H       -16.5812169857        1.0431291559      -12.9163853189
 H       -15.2140000943        2.3492189042      -10.6170904578
 H       -13.8349703886        1.4822785423      -10.4751451259
 H       -15.3378015322        0.6599242815      -10.9013856626
 H       -10.0375034528       -0.1382305169      -16.9386786056
 H        -8.7986735589        0.8870834580      -17.3023069149
 H       -10.4665459376        1.5746629446      -17.0975351519
 H        -7.7760300958       -0.1824523657      -15.3060876977
 H        -9.2141029212       -1.1851259037      -14.8104401482
 H        -8.2845751804       -0.1524810897      -13.6969436117
 H        -9.8399454442        7.3977656536      -15.4734882010
 H        -8.3030597594        8.3772132671      -15.6517283242
 H        -9.2451259041        8.3931869313      -14.1526101737
 H        -6.4882845173        7.8640571756      -13.5809755976
 H        -6.0832204870        7.1756209500      -15.0495568088
 H        -5.9202600550        6.2303689065      -13.5772283238
 H        -9.3717349374        4.4803088697       -8.2077757411
 H        -8.2361190895        5.5691283075       -7.3849074214
 H        -8.3378443244        3.7657300630       -7.1090706358
 H        -5.1907311645        5.0478108031       -8.7117163339
 H        -5.6234248648        3.5854936503       -7.6675470080
 H        -5.9995319473        5.2774673857       -7.1523409708
 H        -6.0767888554       -2.7054024282       -8.0778882211
 H        -6.9521048182       -1.5497629532       -9.0146797195
 H        -7.3617610986       -1.7730869194       -7.3673275997
 H        -6.2717350561       -0.0344566851       -5.7357772689
 H        -4.3955214250       -0.0291507529       -5.5446870277
 H        -5.3054851597       -1.5624490485       -5.4532381500
 H         2.7760144917       -4.0501289267       -7.3993730341
 H         2.0574897663       -2.4549805838       -7.3059838991
 H         2.0911809097       -3.3215955764       -8.7838293326
 H         0.5654359614       -5.7791946097       -8.7293743936
 H         0.4870674963       -4.4052162211       -9.7509553882
 H        -0.9237500850       -5.0592995577       -8.9301645568
 H         3.9392922361       -7.2019623733       -1.0788410727
 H         2.5021138865       -7.8335778123       -2.0699576644
 H         2.6363423990       -6.1001113786       -1.5832266871
 H         5.5631535538       -5.3864971555       -2.3872427598
 H         4.2481384317       -4.5270521807       -2.9924694999
 H         5.3032844840       -5.1776462372       -4.0830493919
 H         7.0599657813      -11.7155619183        0.2681119565
 H         6.3491584481      -10.4231057155        1.4992685741
 H         7.9232862539      -10.9362519660        1.6527936061
 H         8.2343568156       -7.6322389811        0.2245747910
 H         9.3763893597       -8.8041913179        0.9774441748
 H         7.7972866458       -8.2786044442        1.6484838254
 H        14.6912281520       -8.7522559688       -3.4077346130
 H        13.7008059085      -10.0745560661       -2.7045228054
 H        14.0562559458       -8.9474248757       -1.7122273997
 H        12.5254261876       -6.5353628199       -1.9512087241
 H        11.7232991406       -6.3205998069       -3.5288312483
 H        13.4743077046       -6.3881460105       -3.3885974869
 H         9.8688684834      -11.0913611799       -9.1288355460
 H        11.4734382440      -10.6349108085       -8.7061702298
 H        10.3510887816       -9.4891774404       -9.4896469961
 H         8.0553061238       -8.8017774247       -8.6508382874
 H         7.6096438215       -9.1359901009       -7.0043583186
 H         7.7597541026      -10.3992670342       -8.0752158112
 Na        8.4469527910       -8.0082526588       -3.9987965034
 Na      -11.2259175544        4.5058980840      -13.9078239173
