232

 C        10.1323145980      -11.8381268944       -6.5291859828
 C         9.3104178768      -10.5667656990       -6.3517862349
 O         8.4691802036      -10.4109400305       -5.4808995650
 C         9.5355183247       -9.4135687325       -7.4484638451
 C        10.5424061536       -8.4120066795       -6.9200952398
 O        10.1649101396       -7.3119449904       -6.5568534045
 C        12.0048993089       -8.6670989456       -7.1345195647
 C        12.7947015690       -8.1851439320       -5.9008175414
 C        12.1159732199       -8.6458336786       -4.6249099102
 O        11.2377885164       -9.4638385307       -4.7205625942
 C        12.5452030827       -8.1463069160       -3.2220015263
 C        11.4267352263       -8.6941728349       -2.3014799149
 O        10.3521164003       -8.2168570780       -2.4675964802
 C        11.6524486127      -10.0757465788       -1.5681513290
 C        10.6777188910      -10.3184657720       -0.3780914145
 C         9.1899012308      -10.3733730523       -0.9296461895
 O         9.0047217283      -11.1095353378       -1.9003737804
 C         7.9550902693       -9.7391152222       -0.1878626630
 C         6.9204722102       -9.1516255041       -1.2526110358
 O         6.4952098435       -7.9952629331       -1.2224740795
 C         6.3081934892      -10.0355369790       -2.3836312932
 C         5.2302438061       -9.3507102826       -3.1817245159
 C         5.6174178131       -7.9076410773       -3.4575859282
 O         6.7160292329       -7.4690032811       -3.7616484879
 C         4.4131596831       -6.7743889960       -3.5070424290
 C         3.5729991949       -7.0501753924       -4.7299666888
 O         4.0222357114       -7.8385723019       -5.5350185141
 C         2.4041371919       -6.1929797723       -5.0513975688
 C         1.7665777038       -6.3527387611       -6.4578844141
 C         0.5496861381       -5.3480667180       -6.4344591085
 O        -0.3938991405       -5.4849158595       -5.6554757981
 C         0.5912977581       -4.0394410222       -7.3496800105
 C        -0.4692726559       -2.9364633481       -6.9062661455
 O        -0.1211871550       -2.0145625837       -6.2439399731
 C        -1.9323853857       -3.1613290698       -7.1875068053
 C        -2.8879911724       -2.1557682108       -6.5511175112
 C        -3.8021978155       -1.4088200695       -7.5659295521
 O        -3.4905543544       -1.2695268725       -8.6912946154
 C        -5.2271260099       -0.7481205408       -7.0977959945
 C        -5.3256362733        0.5939343918       -7.8723014344
 O        -5.0786804585        1.6003250370       -7.2525800872
 C        -5.5721380038        0.6162497707       -9.3482043359
 C        -5.6788069589        2.1146802173       -9.8654659661
 C        -7.0589982190        2.6608862500       -9.4292414510
 O        -7.9471068402        1.9000235850       -9.3144068920
 C        -7.2566862153        4.1909987328       -8.8945341418
 C        -7.2076024930        5.1320806286      -10.1405411618
 O        -6.3302364756        4.8851091232      -10.9314706161
 C        -7.9996611674        6.4193898123      -10.2597768671
 C        -7.7429762660        7.0168238245      -11.6902904517
 C        -8.6179698402        6.2765906928      -12.7105126501
 O        -9.3293313417        5.3655164162      -12.3881396048
 C        -8.3668938097        6.5958279462      -14.3011029437
 C        -8.5770017923        5.2336068022      -15.0486555679
 O        -9.6362426500        4.8905337477      -15.4449663662
 C        -7.3175127833        4.4371655184      -15.4202426212
 C        -7.7768727931        3.0371951570      -15.9902387370
 C        -8.6524528262        2.3237735189      -14.8963969414
 O        -8.6311721538        2.6533203638      -13.6737806280
 C        -9.6751366338        1.1922402544      -15.2554107504
 C       -10.8829625066        1.3304278099      -14.2127640544
 O       -11.4117017879        2.4262810479      -14.0812915476
 C       -11.5307519605        0.1748989998      -13.4588757457
 C       -12.6829450973        0.5200073069      -12.4770679422
 C       -13.8924048609        1.0395102457      -13.2466872304
 O       -14.1904879224        0.4830675142      -14.2927833962
 C       -14.7947302681        2.1443136823      -12.6910135061
 C       -14.0603569974        3.5119360106      -13.0575482917
 O       -13.1096577959        3.7083878713      -12.3442251992
 C       -14.4840093318        4.4867321889      -14.2545936514
 C       -13.8200769798        4.1166015093      -15.6334898309
 C       -13.0706886330        5.3641252731      -16.1570298393
 O       -12.2963880900        6.0225127049      -15.4377288969
 C       -13.6494611048        5.8139388404      -17.5087158194
 C       -13.1193637178        4.7176673637      -18.4225425548
 O       -12.2204866517        4.0136756438      -17.9538549298
 C       -13.4861606122        4.7520935708      -19.8278469377
 C       -14.8652463579        4.1923637962      -20.2704952082
 C       -15.2133803483        4.8112307011      -21.5986677913
 O       -14.5989467253        5.7116238915      -22.0769727708
 C       -16.3538122735        4.1201867108      -22.4422491956
 C       -15.7772190071        2.6018824486      -22.7310365910
 O       -14.7072748308        2.4827217596      -23.2040106065
 C       -16.8114437354        1.4398153829      -22.6486558650
 C       -17.6745551713        4.2201971735      -21.7094600340
 C       -16.5736865417        4.9759923208      -23.8068300613
 C       -15.2478262918        6.0022924446      -17.4407619968
 C       -12.9863450269        7.2538235933      -17.8205504588
 C       -16.3017301686        1.9072174683      -13.3978480511
 C       -15.0477080901        2.0991490629      -11.1685779298
 C       -10.2694577146        1.1330362666      -16.6737609627
 C        -8.9269721050       -0.1805347452      -14.9718417261
 C        -9.6060557953        7.5059216880      -14.7410679502
 C        -7.1146336177        7.4338536514      -14.5406727384
 C        -8.6115016508        4.2480547702       -8.2132561062
 C        -6.1162783547        4.5227729192       -7.9041814956
 C        -6.3109831383       -1.7869611322       -7.6719248953
 C        -5.4116745528       -0.5274318751       -5.5936033328
 C         2.0134720167       -3.3846636148       -7.3202791745
 C         0.1472575776       -4.7687133591       -8.6933823861
 C         3.5869036853       -6.8599094106       -2.1718321989
 C         5.1124853402       -5.4177753118       -3.5395239579
 C         7.2755646343      -11.0416455064        0.5355068994
 C         8.2127803867       -8.7118833528        0.9026508696
 C        14.0215512259       -8.5775304398       -2.9532520797
 C        12.5427746115       -6.6177368990       -3.0919319775
 C         9.8591827685       -9.9883240552       -8.8674255707
 C         8.1330821094       -8.7555655313       -7.6436873410
 H        11.1540430218      -11.5270801249       -6.9524538314
 H         9.7268296372      -12.5334401638       -7.3034867944
 H        10.2525476106      -12.3424682344       -5.5812889609
 H        12.4638016597       -8.0921353286       -7.9408410178
 H        12.3902304537       -9.7298126366       -7.3276476274
 H        12.6183444337       -7.0627291128       -5.8618357348
 H        13.8563268561       -8.3422857168       -5.8965096078
 H        12.6949920434      -10.0587420419       -1.2134212988
 H        11.6534975217      -10.7852237765       -2.3306302265
 H        10.8213174454       -9.5521218850        0.3894360485
 H        10.9236776535      -11.3283698332        0.1318635924
 H         5.9755764761      -10.9890356619       -1.9289646970
 H         7.0823732867      -10.3715975001       -3.0755098252
 H         4.3016341116       -9.3591045517       -2.5577968986
 H         4.9670311316       -9.6876444104       -4.1594947346
 H         2.8945895646       -5.1453676878       -5.0436492465
 H         1.5940360830       -6.1633425208       -4.3115291611
 H         1.3999246739       -7.4218976703       -6.3609672413
 H         2.4473199481       -6.4166118814       -7.2589932970
 H        -2.3176387542       -4.2417997588       -7.0436566132
 H        -1.8659654521       -3.1927793016       -8.3338449082
 H        -2.2984265769       -1.3162581788       -6.2973503924
 H        -3.4242750922       -2.5880357049       -5.7447767543
 H        -6.3027782559       -0.2143966415       -9.8054260985
 H        -4.6609911470        0.1983373392       -9.7881311932
 H        -5.5443927152        2.1077040247      -10.9641076135
 H        -4.8470556075        2.7521897078       -9.5367249327
 H        -7.5502172404        7.1062285557       -9.5039906742
 H        -8.9965762859        6.2675717700      -10.0422670657
 H        -6.6964896242        7.0511918680      -11.9649260316
 H        -8.0053926841        8.0563195693      -11.6987650897
 H        -6.8352791414        4.1643033216      -14.4251804125
 H        -6.4740879161        4.8360583419      -15.9118698833
 H        -6.8661069898        2.3811899081      -16.2443519322
 H        -8.3094060838        3.1518797208      -16.9181211105
 H       -10.7793932984       -0.2725073319      -12.9253810148
 H       -11.8078883915       -0.5954250420      -14.2286979979
 H       -12.2182975110        1.2573891120      -11.7776309203
 H       -12.9761544882       -0.3114282291      -11.8138328529
 H       -14.1043367413        5.4614895963      -14.0604399540
 H       -15.5525186747        4.4288159808      -14.3332680549
 H       -14.6753257543        3.9488337360      -16.3072037726
 H       -13.1789433798        3.1614566982      -15.5216706901
 H       -12.6730134163        4.2386890533      -20.3044717331
 H       -13.2765439145        5.7699293172      -20.1999943626
 H       -15.6224017027        4.3163752870      -19.4612293176
 H       -14.7296575932        3.1440078798      -20.3429675521
 H       -17.7606739218        1.8134057723      -22.5933929476
 H       -16.7868212153        0.7457125102      -21.7450674846
 H       -16.6887096652        0.7855432847      -23.5365177818
 H       -17.6782763042        5.2616799876      -21.3354062004
 H       -17.6265061046        3.4364411670      -20.9606532075
 H       -18.4296926237        4.0990109015      -22.4789809826
 H       -17.1811103319        4.4017587776      -24.3936429464
 H       -15.6118107077        5.1366205510      -24.2769613027
 H       -17.0183133983        5.8941148026      -23.5930587814
 H       -15.7028775969        5.0145847142      -17.4113126664
 H       -15.5262737711        6.6894136974      -18.2700299526
 H       -15.5048099219        6.5442639280      -16.5455050728
 H       -13.3378959574        7.9424375587      -17.0562880771
 H       -13.1278815432        7.6198826789      -18.8554384685
 H       -11.8846304865        7.2133062853      -17.7516504030
 H       -16.1816623007        1.3533274265      -14.3499889746
 H       -16.8539365278        2.8675285971      -13.3554153450
 H       -16.6990968803        1.0946496165      -12.7193317235
 H       -15.4551316794        2.9985785293      -10.7217820024
 H       -14.1778841487        1.8964319768      -10.6318659657
 H       -15.6422398797        1.2603400238      -10.8318100714
 H       -10.7953489479        0.1287213176      -16.8907342715
 H        -9.4847207167        1.2454443189      -17.3738585869
 H       -10.9440742507        1.9086335836      -16.9106444880
 H        -8.1199540425       -0.3518951119      -15.6447319334
 H        -9.5692917112       -1.0570753724      -15.0846088203
 H        -8.6689065460       -0.2142373130      -13.8835902237
 H       -10.5336480009        7.0437637324      -14.3163923677
 H        -9.6104989635        7.5809871743      -15.7822181858
 H        -9.5444024747        8.4728289683      -14.2823485259
 H        -7.0088795347        8.1564756842      -13.7439845233
 H        -6.9725952620        8.0042957329      -15.4668313138
 H        -6.2874459000        6.7980406966      -14.4470475120
 H        -9.3599951836        4.1914824157       -8.9483608287
 H        -8.7906245575        5.2985317946       -7.7125341872
 H        -8.7737070490        3.5358435340       -7.3973262853
 H        -5.1145043102        4.4997800942       -8.3034763056
 H        -6.2730485988        3.8744570218       -7.0337644207
 H        -6.3406867733        5.5396001114       -7.5899794997
 H        -6.5483988719       -2.5471526183       -6.8783231186
 H        -6.0570613356       -2.2664436168       -8.5760446223
 H        -7.2207789070       -1.2731900430       -7.8312943407
 H        -6.1892328181        0.3227485437       -5.5375075368
 H        -4.4314101378       -0.1825120608       -5.2189405688
 H        -5.7656237094       -1.3325217059       -5.0551696796
 H         2.2716354258       -3.0217893228       -8.2926652030
 H         2.8396558381       -4.0745381667       -7.1383408182
 H         2.0510288185       -2.6342264430       -6.5473702568
 H         0.6240640165       -5.7442432359       -8.8460566269
 H         0.3809973974       -4.1611116843       -9.5364286057
 H        -0.9032402622       -4.9208183308       -8.7938926309
 H         4.2503373964       -6.9257291509       -1.2736288335
 H         2.9218329057       -7.6895410534       -2.1890503646
 H         3.0534344590       -5.8680859231       -2.0606336648
 H         5.0561938818       -4.9322469705       -4.4641832446
 H         6.1629270731       -5.4679347639       -3.2810579608
 H         4.6161562443       -4.6431945213       -3.0224042498
 H         7.0847611225      -11.8707000345       -0.1058388225
 H         6.3081074311      -10.8343099012        0.9614176462
 H         8.0522678615      -11.2593299422        1.3514724106
 H         8.2957304001       -7.7526162575        0.3275032563
 H         9.2275692771       -8.8717515574        1.3257957839
 H         7.4090744314       -8.7774881251        1.6815658736
 H        14.5922978001       -7.9490697484       -3.6574403706
 H        14.1809617773       -9.5671066651       -3.3717396812
 H        14.3944601965       -8.3472674811       -1.9355357177
 H        12.5726949993       -6.3950890673       -2.0354593975
 H        11.6979452294       -6.1181863732       -3.5081432778
 H        13.4815167279       -6.2506156265       -3.5475793880
 H         9.2309788850      -10.8212024571       -9.0755800779
 H        10.9095024702      -10.2048934758       -8.8412474734
 H         9.7373987513       -9.2102720664       -9.5481555043
 H         8.1226172349       -8.1464543572       -8.5315814224
 H         7.9720846982       -8.0211438525       -6.8453448576
 H         7.1475867538       -9.3268472368       -7.6397054929
 Na        8.5994558315       -8.8724881795       -3.8278455751
 Na      -11.1355338603        4.6591660393      -13.5569305993
