232

 C        10.0656096793      -11.5168743967       -6.3705741174
 C         9.0883398175      -10.3749043289       -6.4967981661
 O         8.1818883181      -10.3987366694       -5.6638792509
 C         9.2086788153       -9.1582906512       -7.6234756261
 C        10.5415192195       -8.2969049384       -7.1602678220
 O        10.3653867998       -7.1224712927       -6.8876792867
 C        11.9719200553       -8.8752320144       -7.1942605732
 C        12.7966114773       -8.6778853983       -5.8993050564
 C        11.8637844452       -8.6100382371       -4.6540561882
 O        10.7181568651       -9.0290767187       -4.8324209169
 C        12.3155911645       -8.1053260441       -3.2209228802
 C        11.4574471386       -8.5298919483       -2.0506514695
 O        10.4424742427       -7.9073307510       -1.8297107924
 C        11.8583756229       -9.7762634179       -1.1155042013
 C        10.7317926172      -10.2652170427       -0.1550716714
 C         9.3793830043      -10.0628924109       -0.9023263799
 O         9.3957725319      -10.6006883081       -2.0355184405
 C         7.9472385214       -9.9084289670       -0.2131015065
 C         6.9200254130       -9.2073959262       -1.2912840453
 O         6.7270640533       -7.9829020424       -1.2691961815
 C         6.1896856432      -10.1279110159       -2.2553267069
 C         5.5945840636       -9.4237789007       -3.5104885106
 C         5.9706960143       -7.9787093522       -3.7100188242
 O         7.1299620565       -7.7374010468       -4.0662477641
 C         5.0047896061       -6.8288122429       -3.7270057534
 C         3.8712614737       -7.0840517513       -4.9566758573
 O         3.9504441238       -8.1310176298       -5.5511952105
 C         2.5387360308       -6.3221565520       -5.0918560892
 C         1.8744243374       -6.3962865687       -6.5033345178
 C         0.6321123627       -5.4650740568       -6.4249182130
 O        -0.2944332778       -5.6681505945       -5.7055067401
 C         0.6728188459       -4.1194273796       -7.2079887907
 C        -0.4507444472       -3.2045656718       -6.6412791057
 O        -0.2246206032       -2.2927820787       -5.9234984527
 C        -2.0434481603       -3.5879844431       -6.9874601286
 C        -2.9487784017       -2.4981035285       -6.4328386270
 C        -3.7038638840       -1.6846936902       -7.4924782566
 O        -3.3465817894       -1.5927197730       -8.6466807963
 C        -5.0503568019       -0.9450911937       -6.9819284116
 C        -5.1313838241        0.4867959031       -7.6137154838
 O        -4.9420435078        1.5270665867       -7.0188644384
 C        -5.4513507954        0.6321778907       -9.1536195166
 C        -5.7755118430        2.0328057262       -9.6708628079
 C        -7.1509673093        2.5356968588       -9.4097914980
 O        -8.1220660017        1.8207751576       -9.5645453137
 C        -7.3041945697        4.0830334656       -9.0150725347
 C        -6.9724375605        4.9028208852      -10.2064044652
 O        -6.2426274667        4.5186797760      -11.1051790646
 C        -7.7317611057        6.2649722541      -10.3404506484
 C        -7.5092731852        6.8483345452      -11.7703392925
 C        -8.6286839784        6.3367763041      -12.6843104083
 O        -9.5732085415        5.6913180800      -12.2684672940
 C        -8.5326014246        6.6391877319      -14.2206346019
 C        -8.7263720606        5.2799745248      -15.0251718169
 O        -9.8419729337        4.8367400890      -15.2060190336
 C        -7.4798493755        4.5120946317      -15.4781080531
 C        -7.9107030388        3.0251210625      -15.8116431190
 C        -8.7193517220        2.3919640214      -14.6527458546
 O        -8.4073567730        2.5689285949      -13.5016964916
 C        -9.7744977221        1.2786636309      -15.0221214902
 C       -10.9415962029        1.4393230635      -14.0329931805
 O       -11.4302548083        2.5705244215      -13.9507417925
 C       -11.5896817852        0.2766939167      -13.2669379928
 C       -12.6949559107        0.7992581936      -12.4058877925
 C       -13.9943572808        1.3362084126      -13.2190128565
 O       -14.1820863128        0.8687055907      -14.3190835585
 C       -14.9410822254        2.2539702766      -12.5844716455
 C       -14.1026192075        3.6140372266      -12.9728976305
 O       -13.1844063497        4.0696417815      -12.3231760361
 C       -14.5831021947        4.5479788379      -14.1836014762
 C       -13.9383470810        4.0964886668      -15.5487182844
 C       -13.2795418541        5.3310064637      -16.1738295593
 O       -12.5048376555        5.9529302395      -15.4004962643
 C       -13.5500744194        5.8495823098      -17.5591366181
 C       -13.1109000847        4.7549233885      -18.6241962461
 O       -12.2508108638        3.8907691986      -18.3259700514
 C       -13.5130479811        5.0992890395      -20.0201535336
 C       -14.6665379533        4.2322934870      -20.6239164122
 C       -15.1621510593        4.7417953516      -21.9908439076
 O       -14.6894318385        5.7562961461      -22.4398353512
 C       -16.4697651897        4.0221777569      -22.6646183408
 C       -16.0842219996        2.4663701867      -22.8491943870
 O       -14.9756716973        2.1344910552      -23.1818121339
 C       -17.3695014474        1.5577025811      -22.6665325751
 C       -17.7143722423        4.4501723679      -21.6634320138
 C       -16.7350840101        4.6539533600      -24.0326501794
 C       -15.1429981983        5.9200890970      -17.5802202355
 C       -12.8304826193        7.2106115002      -17.7924922097
 C       -16.2999029085        2.0098806425      -13.1808493367
 C       -14.9940058681        1.9221958751      -11.0721666616
 C       -10.3740079750        1.6674951993      -16.4068343495
 C        -9.0860167797       -0.1941262369      -15.1303979579
 C        -9.6704139577        7.5743479143      -14.6349153076
 C        -7.1231051795        7.2402196000      -14.5257360136
 C        -8.8514231633        4.4371598543       -8.4982774306
 C        -6.3848634693        4.5392730297       -7.7770314850
 C        -6.2948362901       -1.7740864449       -7.3410704890
 C        -4.9040686601       -0.6202374280       -5.4640234370
 C         2.0144546784       -3.4095171958       -7.0480839202
 C         0.2734738321       -4.4554060492       -8.6821054058
 C         4.1983222424       -6.7109020271       -2.4215036983
 C         5.7925739940       -5.5485946688       -3.9399838996
 C         7.6589287873      -11.3818913616        0.1238007466
 C         8.0809128135       -9.0201554543        1.1278581116
 C        13.8093988192       -8.5510782750       -2.9197108412
 C        12.2278123907       -6.5627804780       -3.3330875665
 C         9.5319215206       -9.7078979402       -9.0154860188
 C         7.9844360598       -8.2888774840       -7.5712077756
 H        10.5546106924      -11.7550803272       -7.3331421871
 H         9.6719873836      -12.5041160304       -6.0885918993
 H        10.8868949696      -11.0997576728       -5.7901206429
 H        12.5734803803       -8.4687587813       -7.9480942047
 H        11.9847639293       -9.9877044729       -7.3418123861
 H        13.2759933816       -7.7093399831       -5.8718448671
 H        13.5365196981       -9.3348797823       -5.6076710982
 H        12.8007530308       -9.4451868689       -0.5371044221
 H        12.2113720424      -10.5629896376       -1.7653137141
 H        10.7779170827       -9.8257415172        0.8746969327
 H        10.7492945471      -11.4206578209       -0.0582100450
 H         5.3607055275      -10.6745708430       -1.7973343022
 H         6.7484535167      -10.9918094142       -2.6244738471
 H         4.5144137119       -9.6652991456       -3.6008001594
 H         5.9334598888      -10.0693543017       -4.2742908400
 H         2.6005574037       -5.2033773311       -4.8474119406
 H         1.8570282164       -6.6578522621       -4.3062051160
 H         1.4636279356       -7.4234621814       -6.7417690456
 H         2.5636324227       -6.1341650573       -7.2811570543
 H        -2.0847647194       -4.6373266204       -6.5321892626
 H        -2.3761929184       -3.7967169245       -7.9656552653
 H        -2.3628485701       -1.8107273659       -5.8127670911
 H        -3.7884861718       -2.9449110660       -5.8778071432
 H        -6.2943900605       -0.1369709581       -9.5767752119
 H        -4.5511470840        0.1937808350       -9.6089619102
 H        -5.7614699365        1.9879521490      -10.8017091160
 H        -4.9708012290        2.6949921559       -9.3775948144
 H        -7.2701761744        6.9433987331       -9.5757863465
 H        -8.8336510753        6.2487833128      -10.2229397668
 H        -6.5641085242        6.6671596137      -12.2832608466
 H        -7.6856862443        7.9257976306      -11.8225389993
 H        -6.7274401521        4.3334425982      -14.6233819682
 H        -6.8240068480        5.0437939152      -16.1525821980
 H        -6.9813856955        2.4033491688      -15.9648419726
 H        -8.5348245248        3.0090308955      -16.7136573136
 H       -10.8908703340       -0.1443637687      -12.6198759746
 H       -12.0287141802       -0.5399889667      -13.8898215360
 H       -12.3727309284        1.5396204795      -11.6414244150
 H       -12.9984457949        0.0254199179      -11.8052725961
 H       -14.1993812590        5.5329946368      -13.9510376690
 H       -15.6760800091        4.5410052374      -14.3086744243
 H       -14.7441299262        3.6272618859      -16.1473867735
 H       -13.1725622961        3.2867508921      -15.2904631678
 H       -12.6657095786        4.9037485253      -20.6407585587
 H       -13.7493281455        6.1578302585      -20.0738696742
 H       -15.6117176522        4.2176081219      -20.0256882529
 H       -14.3820096576        3.2070835184      -20.6942260975
 H       -18.1565866026        1.9427690503      -23.2546530534
 H       -17.7798696489        1.6135514870      -21.6104826102
 H       -17.3420056551        0.5541742094      -23.0471710815
 H       -17.4870756241        5.5356821452      -21.7470707070
 H       -17.5485692466        4.0767195988      -20.6477305212
 H       -18.6094974807        4.0453759702      -22.1048383219
 H       -17.7334064450        4.4431801026      -24.4343179751
 H       -15.9955527244        4.2916428649      -24.6412164815
 H       -16.3970535962        5.6982327187      -23.9025037734
 H       -15.5492228529        4.8954759681      -17.6850404980
 H       -15.4016136732        6.4709227072      -18.5251207480
 H       -15.4130495002        6.5086450185      -16.7403020457
 H       -13.2610448180        7.8777519992      -17.0282693713
 H       -12.9780520255        7.5722541910      -18.7948746206
 H       -11.7267961278        7.1820252082      -17.6856636063
 H       -16.2332243346        2.5140964659      -14.1557257358
 H       -17.0218536758        2.3544159065      -12.4550961021
 H       -16.4816991753        0.9616577699      -13.2029719263
 H       -15.8641787596        2.2851883755      -10.6171029273
 H       -14.1572283115        2.2785131367      -10.5154125405
 H       -15.0655710330        0.8511365637      -10.7723581248
 H       -11.2645626976        1.0691918084      -16.5696457382
 H        -9.6640681769        1.4935799919      -17.1710488388
 H       -10.7580559813        2.6585485469      -16.6110571539
 H        -8.3042498865       -0.2149382271      -15.8668723639
 H        -9.8179408221       -0.8785281764      -15.5721941433
 H        -8.6724620441       -0.6320491749      -14.1993499609
 H       -10.6474603104        7.0346063438      -14.3839143759
 H        -9.6490500529        7.7169683758      -15.7332683779
 H        -9.5972959840        8.5730296118      -14.1662032218
 H        -7.0963607173        8.2040521843      -14.0490292806
 H        -7.0190059051        7.3759830551      -15.6233168841
 H        -6.1970168623        6.7611305193      -14.1979153200
 H        -9.5185873477        4.3855225565       -9.3451487614
 H        -8.8570760780        5.4382414320       -7.9516007785
 H        -9.3228954004        3.8265707418       -7.7652103935
 H        -6.0966817456        5.5518026103       -7.6982015246
 H        -5.3829847627        4.0051549258       -7.9223418164
 H        -6.9409873335        4.2052453801       -6.9015892486
 H        -6.0554069360       -2.8150007029       -6.9211695821
 H        -6.3269636311       -1.9186030706       -8.4285698609
 H        -7.2238634408       -1.4686686024       -6.9108703373
 H        -5.8180655415       -0.2409093818       -5.0069495945
 H        -4.2088193943        0.3110096411       -5.4151430586
 H        -4.5531685661       -1.4728026700       -4.8990765342
 H         1.9675460333       -2.3019067495       -7.0187582343
 H         2.5950278243       -3.6947698798       -7.9136482192
 H         2.5675504755       -3.7246013599       -6.1772064486
 H         1.0067255220       -5.0639319659       -9.2300954245
 H        -0.1129114528       -3.6628516464       -9.3057323512
 H        -0.5262881987       -5.1289362524       -8.5667341431
 H         4.8999776368       -6.8309253949       -1.6177338800
 H         3.5889338329       -7.5927390494       -2.3182586077
 H         3.4929029613       -5.8322340609       -2.3142565209
 H         6.6160251663       -5.6476468139       -4.5715903150
 H         6.2152461996       -5.1364846040       -3.0534558611
 H         5.2100143848       -4.7588653848       -4.4252141964
 H         7.7359147114      -12.0610524719       -0.7842179737
 H         6.6359934551      -11.5902401143        0.5144431786
 H         8.4334574777      -11.7796021399        0.7636092526
 H         8.0501487049       -7.9615790595        0.8694706264
 H         8.9278739916       -9.2540735124        1.7326377121
 H         7.3164424110       -9.4230231992        1.7411158484
 H        14.5213415729       -8.2715508065       -3.7106843901
 H        13.8637517216       -9.5586380550       -3.0371865552
 H        14.1558446058       -7.9850287494       -2.0934393617
 H        12.7189862028       -6.1988303910       -2.4234222678
 H        11.2101597385       -6.2331560565       -3.2457891231
 H        12.7143865451       -6.1644307762       -4.2711885814
 H         8.5959634494      -10.2085984798       -9.1834835454
 H        10.3448099193      -10.4380201067       -9.0739619777
 H         9.6577337846       -8.8792028411       -9.6721558211
 H         8.0027995144       -7.3280115375       -8.0069226861
 H         7.6361146116       -8.1685707631       -6.5636902391
 H         7.1989689235       -8.8129059942       -8.1521373859
 Na        8.8391472762       -9.2072411891       -3.8420580965
 Na      -11.3233700322        4.8761311670      -13.5022186499
