232

 C       -19.1467990220       -8.7588732553       -0.7269709096
 C       -18.6320462654      -10.1483480675       -1.1732634851
 O       -18.1152318273      -10.4121582256       -2.2327605396
 C       -18.7133024315      -11.2993162533       -0.1139786967
 C       -17.1987604015      -11.2744544918        0.1930224627
 O       -16.4050000731      -11.8337335308       -0.5174641655
 C       -16.6349566126      -10.5586092814        1.3951537138
 C       -15.1874073024      -10.1582216730        1.1760060891
 C       -14.9360067366       -9.2055177228        0.0742074033
 O       -15.8127369320       -8.4245290671       -0.2753261244
 C       -13.4920981071       -9.1260757594       -0.7101635580
 C       -13.6071823973      -10.1565849100       -1.9535285558
 O       -13.8336383907      -11.3360357880       -1.7968622079
 C       -13.4020081508       -9.5341551167       -3.3312886296
 C       -13.5244927593      -10.6445383707       -4.3797055288
 C       -14.7603344478      -10.5075236542       -5.3089285070
 O       -15.8283429890      -10.9958933368       -4.8819270381
 C       -14.5982950941      -10.0778453456       -6.8107576898
 C       -13.8541839823       -8.6980528338       -6.7774908472
 O       -12.8974006744       -8.5577716720       -6.0782831670
 C       -14.3850127721       -7.7011742683       -7.7822729433
 C       -13.7346924515       -6.3072383740       -7.7649523960
 C       -14.2544799816       -5.3523731123       -8.9325822130
 O       -15.0563222391       -4.5163312276       -8.6097551755
 C       -13.5679935779       -5.3129579124      -10.3351563196
 C       -12.0160890480       -4.8347173243      -10.2255403974
 O       -11.2136873352       -5.6256363741       -9.7038658977
 C       -11.6490607414       -3.5025658717      -10.7880510561
 C       -10.2856744782       -2.8619729185      -10.3250502674
 C       -10.3235901478       -1.2866949336      -10.6662258885
 O       -11.0822130223       -0.8842928422      -11.4551373102
 C        -9.2572901238       -0.3170969559       -9.9775004845
 C        -7.8684946909       -0.6795559353      -10.4099600070
 O        -7.5493234325       -1.7824768256      -10.8764828507
 C        -6.7280871253        0.4026818515      -10.2346016556
 C        -5.5980442158        0.0463062663      -11.2569401981
 C        -4.5158570381        1.1028338330      -11.4749722471
 O        -4.4969252469        2.2949767533      -11.1481746526
 C        -3.1776081347        0.6906327721      -12.1253303434
 C        -2.2930488805       -0.0058912088      -11.0469631000
 O        -1.9794412696       -1.1631899184      -11.3140347624
 C        -1.5877166844        0.7771873516       -9.9742630494
 C        -0.3418782879       -0.0505437915       -9.3775543085
 C        -0.2445143931        0.2548766626       -7.9431662509
 O        -1.0527209629        0.8245270409       -7.2698450677
 C         1.0893643831       -0.1469946796       -7.2075425793
 C         2.1789530079        0.6440386582       -8.0275247042
 O         2.7307956953        0.0943972855       -9.0109000752
 C         2.4642825219        2.0876680281       -7.6727002032
 C         3.8461612418        2.6607748440       -8.1556400276
 C         3.7926030083        3.1640561403       -9.5663405534
 O         2.9816435565        2.7640462322      -10.4333116263
 C         4.6790676419        4.4271869166      -10.0252264502
 C         4.6693874036        4.5438847672      -11.5836018380
 O         5.5447600413        3.9128019584      -12.1732161564
 C         3.5838879674        5.2770411546      -12.4656229887
 C         4.0250934344        6.6893770035      -12.7395118930
 C         4.6064435777        6.7615147440      -14.2276075821
 O         5.0213289497        5.8705862938      -14.8797982100
 C         4.7870895665        8.1822924640      -14.8533249768
 C         5.8123648324        8.0523531186      -15.9878581224
 O         5.3940821953        7.9621747758      -17.1353062559
 C         7.3226835602        7.8615847229      -15.5318589852
 C         8.1222493158        7.1748693785      -16.6686980298
 C         7.7109407471        5.7633960960      -16.8124289265
 O         7.1952763034        5.1516036806      -15.8734186853
 C         7.7581078139        4.9377235677      -18.2134650724
 C         9.2216361079        4.1132033004      -18.0930033796
 O        10.1068078540        4.7006535619      -17.4884737942
 C         9.3460910156        2.9069389373      -19.0644525504
 C        10.5265970002        2.0767085880      -18.6870547551
 C        10.1338227677        0.8797420065      -17.7360710537
 O         8.9306791631        0.6821824601      -17.5611736096
 C        11.0238722444       -0.2537343986      -17.1363122836
 C        10.5306934314       -0.2858280619      -15.5702511869
 O        11.2455639667        0.1844999167      -14.7062630684
 C         9.1507544996       -0.8891200779      -15.2453246504
 C         8.5425396245       -0.1077952905      -14.0383461717
 C         7.3440772701        0.7116388435      -14.3320745771
 O         7.4410048317        1.9031703687      -14.3510827657
 C         5.8607276638        0.0276255755      -14.6916822455
 C         5.3835580489        0.8474597001      -15.9811964577
 O         5.0570069247        2.0301800386      -16.0751204425
 C         5.3421637015        0.1391965310      -17.3219331357
 C         5.8893432148       -1.5328660989      -15.0495371308
 C         4.9812324746        0.3731180785      -13.5366502155
 C        10.6075913185       -1.5568394413      -17.8989105152
 C        12.5386351216       -0.0527239493      -17.1083131370
 C         6.5669606128        3.9979095819      -18.4286617716
 C         7.9364910263        5.8511610003      -19.4460096074
 C         3.3111148149        8.5861681120      -15.2897857636
 C         5.2690007658        9.2308766050      -13.8183457603
 C         4.1229462618        5.6211277346       -9.2364667447
 C         6.1377201092        4.2623106118       -9.5213411632
 C         1.0664245215        0.2740622226       -5.6475735610
 C         1.3874575153       -1.6013306196       -7.4673153185
 C        -3.3997272147       -0.3553449123      -13.2109324828
 C        -2.3211656890        1.9029960394      -12.7001047707
 C        -9.7072434078        1.0292659701      -10.3036019102
 C        -9.3817837052       -0.6150768519       -8.3843061112
 C       -13.5972557124       -6.7345381099      -10.9912809767
 C       -14.4189043666       -4.2348157257      -11.1105084224
 C       -13.4980535400      -11.1171963209       -7.4320832623
 C       -15.8275346962      -10.0633869889       -7.6408809670
 C       -13.2928613830       -7.7414492987       -1.2233131786
 C       -12.3655587041       -9.7207896233        0.2145502595
 C       -19.5888304794      -11.0488991828        1.1986572670
 C       -19.1805956678      -12.6414524402       -0.6569059224
 H       -18.3931759902       -8.4024390504       -0.0856046369
 H       -20.1718388414       -8.8512017650       -0.2523319882
 H       -19.2319947306       -8.0811027245       -1.5786018984
 H       -16.8146483326      -11.1700573393        2.2973389929
 H       -17.2072972920       -9.6152523576        1.4424929742
 H       -14.4864297824      -11.0058719856        1.0176098549
 H       -14.8876030285       -9.5884502143        2.1211358496
 H       -12.3520353858       -9.1387567283       -3.4119729602
 H       -14.1005434965       -8.7071873272       -3.4668727659
 H       -13.6648226072      -11.4882367419       -3.8062881360
 H       -12.5968295934      -10.7613209686       -4.9436300782
 H       -15.4423883998       -7.7430501980       -7.6945871163
 H       -14.2431040558       -8.2186704684       -8.7443273497
 H       -12.6522839378       -6.5169748133       -7.9290416582
 H       -13.8682698148       -5.8343808083       -6.7684244712
 H       -12.3927315311       -2.6919882543      -10.6544948998
 H       -11.6414724142       -3.6074276519      -11.9287612285
 H        -9.5181796889       -3.2492555475      -10.9652690066
 H        -9.9938375304       -3.0588600282       -9.2941133161
 H        -6.2245156015        0.4772185227       -9.2932060665
 H        -7.0721190245        1.3765862310      -10.3820885497
 H        -6.0070563676       -0.0969354629      -12.2362035274
 H        -5.2437091915       -0.9210712036      -10.7942871743
 H        -2.3074551619        1.0291659885       -9.1863386429
 H        -1.3320141033        1.7440112892      -10.5429415851
 H         0.5161613337        0.1429595661       -9.9579335629
 H        -0.6475099530       -1.0445613795       -9.6452162685
 H         2.3502698195        2.2377226090       -6.6331532837
 H         1.5655740036        2.7568517242       -7.9950524396
 H         4.6527765287        2.0100592391       -7.8568012819
 H         3.9945695872        3.5397899597       -7.5559694892
 H         2.6324526596        5.3457180348      -11.9247361333
 H         3.5723476649        4.6884468670      -13.3129434864
 H         4.9221022266        7.0206463658      -12.1422194749
 H         3.2138887127        7.3719125078      -12.4156532490
 H         7.3236332759        7.3899452709      -14.5490061151
 H         7.7164848223        8.8458894983      -15.4481132367
 H         9.1833632437        7.2540901474      -16.5089516572
 H         7.8869057335        7.7871896210      -17.7167207420
 H         9.4751789892        3.3224125018      -20.0560518183
 H         8.4443665245        2.2085999440      -18.9877700177
 H        11.3481934947        2.6971997147      -18.2791476572
 H        10.9312655482        1.4796173274      -19.5470446160
 H         9.2735247959       -1.9595448890      -14.9638500805
 H         8.5319616050       -1.0115134326      -16.1344146332
 H         9.3609636408        0.5100548648      -13.5089242214
 H         8.3029094558       -0.7943863219      -13.2654858168
 H         6.2593139794       -0.3096202896      -17.5797493011
 H         4.9008782339        0.6161675691      -18.0971551648
 H         4.6528415015       -0.7336957781      -17.1279696385
 H         4.9771296924       -1.7617224025      -15.6187788194
 H         5.9279248117       -2.2335907315      -14.2871257752
 H         6.7779023966       -1.7851146699      -15.5879105309
 H         4.1330391805       -0.1440622497      -13.8931805582
 H         4.8614420361        1.4025017380      -13.3393289373
 H         5.4513934468       -0.1579603821      -12.7135160916
 H        10.3875062159       -1.3681833381      -18.9564827418
 H         9.6052887216       -1.8807265381      -17.6526551273
 H        11.1043098640       -2.5156543934      -17.7107917003
 H        12.9730717751        0.1531607678      -18.1279289070
 H        13.0780507138       -0.9191212375      -16.6810399347
 H        12.7601295884        0.8969313118      -16.5991235216
 H         5.9142240264        3.9474401271      -17.4537687091
 H         6.8341830207        2.9459285791      -18.6428289105
 H         6.0061779669        4.4550883814      -19.2757546385
 H         8.9599299067        5.9180176466      -19.6661105467
 H         7.3804947414        6.8407912272      -19.2625432316
 H         7.5538854810        5.3752407879      -20.3415382546
 H         2.8339687795        9.0686195400      -14.5015565344
 H         2.7426449890        7.6808968500      -15.6553227160
 H         3.3963630000        9.2227643384      -16.1080897829
 H         5.5174169661       10.0904322442      -14.3190404203
 H         6.1429762116        9.0291424117      -13.2776128612
 H         4.5233918249        9.4707698243      -13.0744372227
 H         4.0638417296        5.5631538983       -8.1074234744
 H         3.1744124400        5.9273034290       -9.6605321157
 H         4.8088430637        6.4939328976       -9.4056128815
 H         6.9039706721        4.8388214373      -10.1389248698
 H         6.3069561664        3.1667428889       -9.3497659772
 H         6.2619583635        4.7539431965       -8.5251192338
 H         0.6203498339        1.2791105403       -5.5142489447
 H         2.0263427258        0.3774322113       -5.1477787100
 H         0.5032156950       -0.4917158359       -5.1038125108
 H         0.5935800196       -2.3413091861       -7.2444935747
 H         2.3335321029       -1.7751875394       -6.8908118741
 H         1.7542650473       -1.7020404948       -8.4724350728
 H        -3.4654813607       -1.3791262622      -12.7994110984
 H        -2.4779944874       -0.5184928928      -13.8715439887
 H        -4.2789578909       -0.1156033233      -13.8396966975
 H        -1.2871596555        1.6213826908      -12.7881116599
 H        -2.4237450590        2.8185997798      -12.0674502500
 H        -2.5660230379        2.2170521397      -13.7748026208
 H       -10.7400449606        1.2176406074      -10.1404383448
 H        -9.4908092984        1.3711136841      -11.3606900780
 H        -9.0661262877        1.7457360801       -9.7406607593
 H       -10.4136317414       -0.5475765494       -8.0999629699
 H        -8.7869547991        0.2109797432       -7.9540682557
 H        -8.9351524912       -1.6003958377       -8.2023574964
 H       -13.2301403970       -6.5767215784      -12.0667178824
 H       -14.6026080189       -7.1211706548      -11.1632889085
 H       -13.0213317721       -7.5996087969      -10.5606491002
 H       -15.3603820558       -4.6260673307      -11.5366731761
 H       -13.8825475440       -3.8816922832      -12.0286856714
 H       -14.4500279785       -3.3881944997      -10.4893685474
 H       -12.7944604241      -11.6496797284       -6.7550228866
 H       -12.9260402575      -10.5479550374       -8.1470259803
 H       -14.0346382522      -11.9102552188       -7.9350729254
 H       -16.5346419922       -9.2224954680       -7.4863999575
 H       -16.4221889205      -10.9768178994       -7.7364853227
 H       -15.6842445960      -10.0098625310       -8.6615119452
 H       -14.1677289485       -7.4505343888       -1.8082525334
 H       -12.4454886954       -7.7026851167       -1.8728736245
 H       -13.0614946515       -7.0472253741       -0.4377495074
 H       -12.3885937003      -10.8365434482        0.0022174914
 H       -12.4931577532       -9.3678817052        1.2596648509
 H       -11.4513218485       -9.2386281268       -0.1771451274
 H       -19.2916923952      -10.0318830999        1.5437956133
 H       -19.1669950830      -11.6390913601        2.0471558891
 H       -20.6316480833      -11.3098062495        1.2080642994
 H       -18.6495115209      -13.4352124636       -0.2248826743
 H       -19.0425174119      -12.6119178533       -1.7591122587
 H       -20.2435429236      -12.7582729556       -0.4510537468
 Na      -16.1953792658      -11.9780616965       -2.7710215370
 Na        5.9463052673        3.7181611802      -14.4647920292
