232

 C         8.6793751587      -11.5692386406       -7.5974600634
 C         9.1181035276      -10.2816950612       -6.9717172978
 O         8.9278222672      -10.1388007210       -5.7748441579
 C         9.3514160173       -9.0595304759       -7.9671014535
 C        10.7082227309       -8.1536791999       -7.4510884400
 O        10.6040277870       -6.9935019395       -7.2593591462
 C        12.0725590597       -8.9946937621       -7.2029671226
 C        12.9228681098       -8.4940923520       -6.0319276670
 C        12.1304602670       -8.6658903076       -4.6691984744
 O        11.3137885085       -9.5105229432       -4.5400203432
 C        12.4895116616       -7.7522697074       -3.3241686893
 C        11.3237036833       -8.0397453021       -2.3466152137
 O        10.2629630190       -7.4722746691       -2.4791967918
 C        11.5206853466       -9.0710499772       -1.1837797710
 C        10.2878109799       -9.0724369050       -0.2772037107
 C         9.5494818441      -10.2629951649       -0.6459463690
 O         9.9567380153      -11.0039245852       -1.5396766956
 C         7.9606552238      -10.4535335252       -0.2016901477
 C         7.1728181356       -9.5665814729       -1.1394495451
 O         7.1516565680       -8.3804644420       -1.0051456354
 C         6.3745878092      -10.2785136260       -2.2975681724
 C         5.5077509555       -9.1104272272       -2.8282365132
 C         6.2141174862       -7.9681452080       -3.5920239078
 O         7.3968762440       -7.7990546135       -3.7836520801
 C         5.2399971645       -6.7669532517       -4.0605059570
 C         4.0034353505       -7.2827447715       -4.8472785197
 O         4.1384081055       -8.2791677673       -5.5185532329
 C         2.6875965797       -6.4108593068       -4.9748032422
 C         2.2867142524       -6.1505223043       -6.4477588244
 C         0.8568643621       -5.4673264474       -6.5828596766
 O        -0.0849997647       -6.0934022631       -6.0882483655
 C         0.6534148946       -3.9929725663       -7.1973612995
 C        -0.6822323492       -3.5280842649       -6.5110273404
 O        -0.5855107132       -2.9535787608       -5.3933777555
 C        -2.0201687254       -3.7665177865       -7.1186522135
 C        -3.1076325719       -2.9659741658       -6.3350107464
 C        -3.7268001497       -1.8790259098       -7.1429993925
 O        -3.4413091586       -1.8340847881       -8.3619981992
 C        -4.8024196482       -0.9476580301       -6.5184279290
 C        -5.0258191137        0.3495048417       -7.3458227663
 O        -4.6882239836        1.3609975322       -6.7553908203
 C        -5.2320294082        0.2677040620       -8.8825314413
 C        -5.5691010317        1.5788487806       -9.5172708595
 C        -7.0485593973        2.0089558395       -9.2141526660
 O        -7.8164218549        1.0918033929       -8.9128968938
 C        -7.4904039518        3.5035157736       -9.0855236628
 C        -7.1695685283        4.3300526611      -10.3697982058
 O        -6.3659088001        3.8534686996      -11.1735978446
 C        -7.7836944620        5.6976097680      -10.5413653690
 C        -7.4794656869        6.3881151219      -11.8391842540
 C        -8.7481215485        6.5597847528      -12.7830255220
 O        -9.9122927427        6.6633059141      -12.3554044771
 C        -8.3394979327        6.7912318387      -14.2848241773
 C        -8.4444397789        5.2935599666      -14.8840121966
 O        -9.5142614020        4.7208815754      -14.7899797699
 C        -7.2200504722        4.4571927709      -15.2378823493
 C        -7.6774087379        3.1101691326      -15.7886700849
 C        -8.6253341419        2.3453611136      -14.6327395736
 O        -8.2279465041        2.2554162810      -13.5203989321
 C        -9.9891812229        1.5807267068      -15.1110944094
 C       -10.9723276618        1.7807962042      -13.8887654958
 O       -11.2747066523        2.9103837647      -13.5714619214
 C       -11.6043337737        0.6352798659      -13.0641327463
 C       -12.7617840943        1.0103895950      -12.2168941973
 C       -13.9013076717        1.6283233523      -13.1670223073
 O       -14.0619366157        1.3063811815      -14.3277554399
 C       -14.9601757551        2.6450439076      -12.6102204737
 C       -14.4812222685        4.1020423115      -13.2045372141
 O       -13.3862932816        4.4235981574      -12.7589477100
 C       -15.1606074736        4.6773058971      -14.5132294320
 C       -14.2061350147        4.2322957339      -15.6625618274
 C       -13.4527686684        5.4524850676      -16.2148080469
 O       -12.5121683385        5.8657175840      -15.5950457590
 C       -13.9061474824        5.9637244633      -17.6412502531
 C       -13.8087648039        4.7403513921      -18.6039056735
 O       -13.8449402911        3.6216275001      -18.2888229511
 C       -13.9095043024        5.2441251164      -20.1354816422
 C       -14.4975892021        4.0708710472      -20.8945873888
 C       -15.0472283341        4.5451170059      -22.1993868161
 O       -14.5458789430        5.4661399782      -22.7876390179
 C       -16.3473564788        4.0092931595      -22.6831746767
 C       -16.4344597067        2.4582714289      -22.5559542866
 O       -15.7519685384        1.7477399475      -21.8060711401
 C       -17.6051164543        1.8027952525      -23.1840407361
 C       -17.4248503053        4.5988710440      -21.5894969364
 C       -16.7502787924        4.4659273740      -24.0614170857
 C       -15.4639944741        6.2552013151      -17.5271614388
 C       -13.0634025264        7.1288613427      -18.1448909356
 C       -16.3505119102        2.1201922292      -12.9581798331
 C       -14.8034620382        2.6867420783      -11.0379442488
 C       -10.6308540921        2.1555896370      -16.3415064504
 C        -9.5634474992        0.1361698494      -15.3174588577
 C        -9.3952877741        7.5801302569      -14.9524327936
 C        -6.8797865365        7.3562848718      -14.4172982218
 C        -9.0050875683        3.5481524141       -8.5854073646
 C        -6.7235520211        4.2367011867       -7.9178881403
 C        -6.2210520762       -1.6259415352       -6.5834030047
 C        -4.4821725266       -0.5362754204       -5.0870828093
 C         1.9143856268       -3.0675273245       -6.7377968552
 C         0.4194781841       -4.0766241211       -8.7480062222
 C         4.7110242200       -6.1693987659       -2.6553355093
 C         6.0474206228       -5.7073536904       -4.8613461756
 C         7.4871525963      -11.8954251710       -0.3431901104
 C         7.8782100853      -10.0214994404        1.2925904658
 C        13.9671555604       -8.1304215335       -2.8954940861
 C        12.4127552048       -6.2021499032       -3.5654269386
 C         9.5057625857       -9.3784990099       -9.4686012053
 C         8.2728216422       -8.0754843212       -7.7238922870
 H         7.8178730519      -11.5085755718       -8.1513577333
 H         8.6049627327      -12.2839578181       -6.7950077560
 H         9.3401566411      -12.1168638998       -8.2860251233
 H        12.6728122368       -8.9269665375       -8.0846824795
 H        11.7371447755      -10.0047937246       -7.0728873518
 H        13.2360163919       -7.4962505835       -5.9836627750
 H        13.7960375700       -9.0192303779       -5.8376242833
 H        12.4339075207       -8.7773569520       -0.5456582072
 H        11.6814348141      -10.0708024296       -1.5762056172
 H         9.7499476870       -8.1717807880       -0.5196935730
 H        10.4764548759       -9.1059525749        0.7674337779
 H         5.7697414420      -11.0194361924       -1.8275820099
 H         7.0274880190      -10.7782505043       -3.0599283979
 H         5.1239820048       -8.7161952255       -1.8457502184
 H         4.6387980533       -9.4619043144       -3.4084799666
 H         2.7656156008       -5.4702584044       -4.4007309485
 H         1.9708263305       -7.0379434888       -4.5611676690
 H         2.3787207475       -7.1220525916       -6.9556497661
 H         3.0593734694       -5.5455930215       -6.8864231336
 H        -2.1582440731       -4.8064925858       -7.1698197344
 H        -2.2241350325       -3.4582001566       -8.0684942557
 H        -2.8449466213       -2.6825813059       -5.2785947451
 H        -3.9633505749       -3.6759251001       -6.1203356008
 H        -6.1402416103       -0.3434495171       -9.0433236825
 H        -4.2398679211       -0.3132950772       -9.1947813373
 H        -5.5283281356        1.3540978854      -10.5795257119
 H        -4.8068841549        2.2410191989       -9.2276339121
 H        -7.4066219450        6.3957897646       -9.7634463293
 H        -8.9567807145        5.7499082377      -10.3447230242
 H        -6.7996615785        5.7446592363      -12.4352957524
 H        -7.1980181647        7.4532188854      -11.7687266468
 H        -6.5447815681        4.1859832662      -14.3816215369
 H        -6.5696174061        4.9257070781      -15.9546033770
 H        -6.7881613371        2.5776833071      -15.9234449654
 H        -8.1819043760        3.3321362682      -16.7763435374
 H       -10.8565986688        0.3151323322      -12.3093802837
 H       -11.9565076736       -0.2151540129      -13.7209171068
 H       -12.5659197498        1.8387562773      -11.5506164240
 H       -13.1710612800        0.1892705435      -11.7465095472
 H       -15.3589113646        5.7631025488      -14.4488760422
 H       -16.2123619431        4.3187076818      -14.6415023181
 H       -14.7115090030        3.6921860127      -16.4310671323
 H       -13.5205454878        3.5193208626      -15.3431032406
 H       -12.8353576053        5.4606343967      -20.3741499618
 H       -14.4852128736        6.1580562767      -20.1277423626
 H       -15.2018130574        3.4463400644      -20.3109909587
 H       -13.6182752684        3.4236732231      -21.0637962478
 H       -17.2756555339        1.4946566833      -24.2307257673
 H       -18.5529127800        2.2222296329      -23.1096513809
 H       -17.6971924701        0.8813349949      -22.6858655711
 H       -17.4461678804        5.6329496522      -21.7892096468
 H       -17.0782760690        4.2432740478      -20.6721706229
 H       -18.3375894320        4.1802426059      -21.9363865915
 H       -17.8431550531        4.5961720298      -24.2680687293
 H       -16.2734109276        3.7045513478      -24.8332764288
 H       -16.3024451606        5.4665647598      -24.1942876550
 H       -15.9735560847        5.3394369405      -17.1993977635
 H       -15.7441252068        6.6423535864      -18.5086305344
 H       -15.6277047837        6.9834975150      -16.7619032367
 H       -13.0215475380        7.9593391523      -17.3887211640
 H       -13.6810061824        7.5823408485      -18.8644839306
 H       -12.0612803576        6.8815365804      -18.4773879143
 H       -16.4769117944        2.1628200794      -14.0554520438
 H       -17.1269170361        2.7016801488      -12.4519339544
 H       -16.2612580304        1.0920403518      -12.7383455544
 H       -15.5739497647        3.3197956440      -10.5876724552
 H       -13.8632931719        3.2327601964      -10.6913790317
 H       -14.9299019718        1.6681482543      -10.5972544623
 H       -11.5967491835        1.7927069889      -16.4755471341
 H       -10.2733573905        1.9404557568      -17.3935242513
 H       -10.7608690601        3.2699823755      -16.1996489404
 H        -8.9172084316        0.3034591929      -16.2034315565
 H       -10.4315483020       -0.5129154485      -15.6521643850
 H        -9.0375069789       -0.4154401416      -14.5560346261
 H       -10.0316000969        6.9761403440      -15.4746163816
 H        -9.0112610696        8.3482471275      -15.6558204406
 H        -9.9732081241        8.0466817142      -14.1940872553
 H        -6.7393421628        8.2863273455      -13.9565468280
 H        -6.7972712893        7.5642145642      -15.4561523254
 H        -6.1231402009        6.5988423660      -14.0758784477
 H        -9.7305456006        3.1884450098       -9.4195590164
 H        -9.2142260138        4.5377175883       -8.5162279553
 H        -9.2002884643        2.9619630467       -7.7115542755
 H        -6.6932551650        5.2996021525       -8.0111676698
 H        -5.7231683408        3.7724489673       -7.7955016350
 H        -7.1644455362        4.0097578052       -6.9337560867
 H        -6.2903330417       -2.4923500693       -5.9676072714
 H        -6.4825585935       -1.9175097356       -7.6257922813
 H        -6.8195459664       -0.8271061430       -6.2239080755
 H        -5.1325056027        0.2090419380       -4.7163825603
 H        -3.4367926331       -0.2393534615       -5.0772757039
 H        -4.4938975671       -1.4100084688       -4.3283200769
 H         1.6376671813       -1.9428429808       -6.5864011779
 H         2.7552973488       -3.0987817266       -7.4320221168
 H         2.2800478392       -3.4852270654       -5.7640199923
 H         1.3021216347       -4.4741937962       -9.2898186906
 H         0.3178966354       -3.0673210136       -9.1871939553
 H        -0.4342797254       -4.6468501678       -8.9877717631
 H         5.5520914018       -6.0785778747       -2.0404715532
 H         3.9837332356       -6.8852386742       -2.1938399630
 H         4.2598502171       -5.1729680039       -2.6492743928
 H         6.5454539080       -6.3118138664       -5.6646952283
 H         6.8875867911       -5.2205204604       -4.3263859766
 H         5.4343052697       -4.8387929142       -5.3123203659
 H         7.6516794943      -12.3099512454       -1.3813363510
 H         6.4606035003      -12.1499186028       -0.0278353999
 H         8.0257054284      -12.6001083389        0.2149379117
 H         7.6102145015       -8.9724702620        1.4938597245
 H         8.7221801600      -10.4179922352        1.8019959479
 H         6.9300176386      -10.4350081570        1.5908879482
 H        14.6174646375       -7.3689812611       -3.3954399218
 H        14.2976343030       -9.1700792566       -2.9664192913
 H        14.1125064678       -8.1486107746       -1.8371274416
 H        12.6487767354       -5.7166520136       -2.6390298205
 H        11.3796635414       -6.0595206995       -3.8226197262
 H        13.0267218060       -5.7544011129       -4.3313757932
 H         8.4932439816       -9.7261453092       -9.7068970628
 H        10.2854017558      -10.0903298911       -9.6593448465
 H         9.7045101730       -8.4428889785      -10.0362674185
 H         8.4543475313       -7.0677048675       -8.1957287162
 H         8.0110625904       -7.8999093957       -6.6546715924
 H         7.3783256176       -8.4869830173       -8.1257570099
 Na        9.1099596543       -9.3793653653       -3.5571274301
 Na      -11.5856073936        5.2355693862      -13.5857291401
