232

 C         8.4393512292      -11.3208028237       -8.4027546102
 C         8.9733844076      -10.3161997343       -7.4921063745
 O         8.9940514490      -10.4625177630       -6.2992730082
 C         9.5462043589       -8.8949499339       -8.1182597227
 C        10.7406482280       -8.3613404639       -7.1018392807
 O        10.5661769936       -7.4641072968       -6.3165545941
 C        12.0919857701       -9.1287445302       -7.1414546869
 C        13.0258125648       -8.6297668293       -6.0392461555
 C        12.3699209596       -8.7492205290       -4.5549382164
 O        11.8095616315       -9.7636022236       -4.2084361608
 C        12.6117841593       -7.7121241006       -3.4642693668
 C        11.2937706553       -7.9255535341       -2.4633542406
 O        10.2745646572       -7.5578035845       -2.9658255987
 C        11.4648281608       -8.4415654370       -1.0628338960
 C        10.1029909700       -8.6323102648       -0.4002729429
 C         9.4232455304       -9.7803395056       -1.1027161905
 O         9.7599637409      -10.1909451562       -2.1868597755
 C         8.1735082311      -10.5292247390       -0.2968463766
 C         6.9750501542       -9.6356278538       -0.6753271647
 O         6.6682002543       -8.6535225027       -0.0225571791
 C         6.1002520689      -10.0202468968       -1.9457755193
 C         5.3345288863       -8.7831335550       -2.3652202795
 C         5.9819339501       -8.1285789206       -3.4883153393
 O         7.0501967882       -8.5351817998       -3.9282819908
 C         5.4425594490       -6.6209788957       -4.0656757401
 C         4.2029628285       -7.0334638900       -4.9633786219
 O         4.0171806430       -8.2007802540       -5.2785795968
 C         3.2106316192       -5.9407012118       -5.2999982459
 C         2.2891368911       -6.2493189520       -6.5652956476
 C         0.8885512149       -5.5996946037       -6.5811822174
 O        -0.0717743961       -6.3465108285       -6.4751572922
 C         0.6294016564       -4.1080734972       -6.8866157055
 C        -0.7091318960       -3.6294805433       -6.2491426312
 O        -0.6080384655       -2.9409450311       -5.2200217584
 C        -2.0579479999       -4.2429561005       -6.7092251077
 C        -3.1959252961       -3.3001322466       -6.1837711918
 C        -3.5523243876       -2.0782950966       -7.0768717169
 O        -2.9877503749       -1.9211910328       -8.1821772524
 C        -4.4646128763       -0.9903347506       -6.4914840469
 C        -4.7410171317        0.4048516969       -7.3189647314
 O        -4.8009082136        1.4623526590       -6.6962708681
 C        -4.8982293036        0.2816922691       -8.8929273343
 C        -5.7309498555        1.4711852882       -9.4256141787
 C        -7.1429566732        1.6117832307       -8.9427227100
 O        -7.8358422649        0.6586530633       -8.5960434352
 C        -7.6754469915        3.0590801366       -8.8387710047
 C        -7.5884249277        3.9077546239      -10.1897267729
 O        -6.9338695825        3.5036768056      -11.1208442029
 C        -8.1613460694        5.4078343139      -10.2869249531
 C        -7.5518070975        6.0530476349      -11.5246008778
 C        -8.5906538703        6.1384049027      -12.6795244057
 O        -9.7797356374        5.9735405494      -12.4744356390
 C        -8.0763647805        6.5867031403      -14.1229870433
 C        -8.2680070216        5.2750285678      -14.9594465231
 O        -9.4291354722        5.1348237258      -15.3978485523
 C        -7.1942444114        4.2927969479      -15.3129148417
 C        -7.7541492471        2.9515476855      -15.8282784788
 C        -8.6108786738        2.3020598456      -14.7199067045
 O        -8.2435820973        2.2651396645      -13.5974822149
 C       -10.0812416356        1.7049490392      -15.1272782291
 C       -10.9820071855        2.0193020580      -13.8900205730
 O       -11.1924102870        3.1777304221      -13.6680752690
 C       -11.6251238045        0.9351582183      -13.0485348768
 C       -12.7015130554        1.5078755284      -12.2376940101
 C       -13.9405355476        1.9054300315      -13.0934145967
 O       -14.2835018211        1.4415013700      -14.1230470523
 C       -14.9525475264        2.9711973319      -12.2965509892
 C       -14.2956655152        4.2208116866      -12.7766950495
 O       -13.2724829610        4.6318501660      -12.2532952057
 C       -14.7627558649        5.0509998893      -14.0152398126
 C       -14.3023757639        4.5308292241      -15.4067934854
 C       -13.5716560669        5.7390768356      -16.2064297072
 O       -12.6094437863        6.3805148843      -15.7352283527
 C       -14.1074492578        6.1506082186      -17.5214272662
 C       -14.0757252781        4.8494095200      -18.7159073896
 O       -13.9316390181        3.6805723729      -18.4517301669
 C       -14.5037627258        5.3021315625      -20.1675473368
 C       -14.7638994972        4.0106415373      -20.9622076893
 C       -15.1444070196        4.2234065817      -22.4572903816
 O       -14.2401198120        4.5639679475      -23.1995040927
 C       -16.6569275498        3.7978641765      -22.9614629752
 C       -16.9081492733        2.3611104530      -22.7413430714
 O       -16.6022389561        1.8736501909      -21.6301312952
 C       -17.4931232499        1.5525554534      -23.9551257407
 C       -17.6546761520        4.5859924496      -22.0339065580
 C       -16.8666800527        4.4048541084      -24.3287783125
 C       -15.6663024160        6.4834540237      -17.3603427342
 C       -13.3359352415        7.4140081745      -18.1538602237
 C       -16.3916387509        2.7019277543      -12.5735880498
 C       -14.8936871856        3.0871045720      -10.7259187775
 C       -10.7739860671        2.2643954818      -16.3464295115
 C        -9.7409629079        0.1773290890      -15.2639276102
 C        -9.0005020850        7.6760422275      -14.5912187710
 C        -6.6862944161        7.0762120720      -14.0379106769
 C        -9.2001188505        2.9831332416       -8.4746485286
 C        -6.7609496907        3.8886384563       -7.8641110913
 C        -5.9569291748       -1.5102759873       -6.5474991440
 C        -4.0865008246       -0.6797438481       -5.0107816775
 C         1.7525790642       -3.1834347917       -6.4686978072
 C         0.4073668721       -3.8458996746       -8.4793610137
 C         5.0965532927       -5.9124045894       -2.7545954662
 C         6.5754917864       -5.8581141249       -4.8216036074
 C         8.1170059640      -11.9599146069       -0.8707265654
 C         8.4190120769      -10.5778279513        1.2021506316
 C        13.9176118325       -7.8850029701       -2.7150595411
 C        12.4312937295       -6.3112953238       -3.9933711619
 C        10.0766443495       -9.0982327124       -9.6032731654
 C         8.4219839199       -7.8142257262       -7.9593617827
 H         7.7893898555      -10.8582602096       -9.1535495658
 H         7.8831133138      -12.0639429352       -7.8542318462
 H         9.1014023711      -11.8870483273       -8.9753854376
 H        12.6474898278       -9.0282918392       -8.0562374963
 H        11.7152797881      -10.1604104404       -6.9911204793
 H        13.3194197073       -7.5808816334       -6.1333149647
 H        13.8774556287       -9.2751991110       -6.1233424643
 H        12.0845156457       -7.7601442062       -0.4671909086
 H        11.9069997903       -9.4568842270       -0.9864926031
 H         9.4260597330       -7.7081193653       -0.4475819789
 H        10.2969150982       -8.8020293209        0.7029878022
 H         5.5363533677      -10.9129009367       -1.5329135025
 H         6.7882445239      -10.3886667351       -2.6567804612
 H         5.3947971478       -8.1049009542       -1.5124206651
 H         4.2892557400       -9.0612416642       -2.5568046256
 H         3.7661359114       -5.0459738560       -5.4432630871
 H         2.5142001532       -5.7911533214       -4.4354842517
 H         2.0388904574       -7.3056200641       -6.6026143817
 H         2.8665821899       -5.9873389841       -7.4402140422
 H        -2.0731692435       -5.1618910364       -6.0216296183
 H        -2.2650775962       -4.4178449310       -7.7642318302
 H        -2.8324391271       -3.0844755366       -5.2013888587
 H        -4.1113228661       -3.8659295820       -5.9890435352
 H        -5.5828560049       -0.6090190435       -8.9842838925
 H        -3.9689178525        0.1702763286       -9.2512719027
 H        -5.9727003446        1.2953458239      -10.4945361543
 H        -5.0961730975        2.3910806323       -9.3528956957
 H        -8.0252946485        5.9143554921       -9.2886824512
 H        -9.2437055712        5.2782472624      -10.3631107571
 H        -6.6799549789        5.4458620225      -11.9506507025
 H        -7.3619917799        7.1347211024      -11.3203842979
 H        -6.6913146363        3.9035462054      -14.4022657924
 H        -6.4466810605        4.7964794104      -16.0264326568
 H        -6.8816408293        2.2486404499      -16.1052548830
 H        -8.2760057425        2.9794266113      -16.7760939374
 H       -10.8965528321        0.4178893528      -12.4431534960
 H       -12.0240157634        0.1967908441      -13.7450062321
 H       -12.4057016475        2.3930070787      -11.5833395316
 H       -13.1471588035        0.7077730459      -11.6195484644
 H       -14.2692996194        6.0228414592      -13.8386061591
 H       -15.8420728725        5.1067753758      -13.9815842438
 H       -15.1356230660        4.2742843683      -16.0434053961
 H       -13.5561901365        3.6720416878      -15.4580102106
 H       -13.7992862502        5.8917629153      -20.6934189101
 H       -15.3284322745        6.0245733592      -20.0978227829
 H       -15.5821793624        3.4195547612      -20.5435330151
 H       -13.9052883677        3.3762767154      -21.0398483583
 H       -16.8822189310        1.5086392059      -24.8208488378
 H       -18.4807329659        2.0172236063      -24.2868375554
 H       -17.6652595180        0.5546782192      -23.5910126898
 H       -17.4345027892        5.6285508577      -22.2834288746
 H       -17.4159494521        4.4014440443      -21.0160608275
 H       -18.5699316420        4.1486709784      -22.3195056998
 H       -17.9641065473        4.5994670269      -24.5834808030
 H       -16.5304113759        3.6811680763      -25.1185491775
 H       -16.2450513097        5.3253074043      -24.5561896471
 H       -16.1501136784        5.6657603167      -16.8559566013
 H       -16.1870735866        6.5825342205      -18.3335731979
 H       -15.7934072676        7.4261748302      -16.8858726713
 H       -12.7871730695        7.8368790910      -17.3529614826
 H       -14.0291670644        8.1175806433      -18.5936883655
 H       -12.6624932933        7.1845544140      -18.9720471865
 H       -16.7006758424        2.8042526091      -13.6161069478
 H       -16.8901393962        3.4049475868      -11.9261034656
 H       -16.6256944581        1.6783865210      -12.2408815784
 H       -15.8808571893        3.2856471879      -10.3189325187
 H       -14.1313705350        3.8126977618      -10.4343629857
 H       -14.4584407902        2.1027477133      -10.2900649339
 H       -11.7787726168        1.9825829823      -16.5814585367
 H       -10.0951956029        2.2345404758      -17.1680088569
 H       -10.8588818706        3.4007296881      -16.3152195957
 H        -9.2642155615       -0.1916511909      -16.1638416789
 H       -10.6906287112       -0.3280916435      -15.3011307935
 H        -9.2551129150       -0.1134652435      -14.2843972388
 H        -9.8519532113        7.8334736054      -13.9246744774
 H        -9.4306468015        7.3163841703      -15.5660885738
 H        -8.6059410333        8.6640720947      -14.7519369670
 H        -6.6078984151        7.7568083308      -13.2019998953
 H        -6.4221862833        7.5199459889      -15.0383552452
 H        -5.9375157436        6.2917836399      -13.8816303108
 H        -9.6433709670        2.1466857736       -8.9853432565
 H        -9.7558324206        3.8515534503       -8.8915945896
 H        -9.2540218202        3.1039109715       -7.4190009498
 H        -7.3692985088        4.7191310246       -7.5895013284
 H        -5.8639219554        4.3503118712       -8.4632114408
 H        -6.2961960788        3.5049116049       -6.9487668800
 H        -5.8076357856       -2.4625587576       -5.9689079100
 H        -6.3724667187       -1.6100817895       -7.5149999588
 H        -6.5425598788       -0.8666181558       -5.9313664625
 H        -4.7921487548       -0.0802912063       -4.5433528314
 H        -3.0758959264       -0.0915091377       -5.0450297601
 H        -3.9020222003       -1.5941801409       -4.3915609596
 H         1.6261984087       -2.2649111585       -7.0798988137
 H         2.7035436443       -3.6214640860       -6.8734446744
 H         1.8262799689       -3.0262809166       -5.3755381763
 H         1.3317698587       -3.9888637801       -9.0576587399
 H        -0.1197402223       -2.8945200046       -8.6525166603
 H        -0.3024106081       -4.6142880751       -8.7972950284
 H         5.9471545267       -5.9135063666       -2.0648358117
 H         4.2836821361       -6.3300761795       -2.2584643963
 H         4.8679271902       -4.8399851358       -2.9712916949
 H         6.5341253141       -6.0048176424       -5.8972952134
 H         7.5032695024       -6.2191764825       -4.2976473070
 H         6.3512038118       -4.7637492061       -4.7814437395
 H         8.0433282310      -12.1859038943       -1.9730690176
 H         7.1369929797      -12.4364926541       -0.6955997560
 H         8.8734579639      -12.5586283155       -0.4625910593
 H         7.8756530364       -9.8207056335        1.7530018260
 H         9.4589022362      -10.4767002533        1.5086074086
 H         8.1519532116      -11.5467245553        1.5372473023
 H        14.8132861227       -7.3075802609       -3.0510234707
 H        14.2528663506       -8.8870646653       -2.7334705454
 H        13.8526728237       -7.6652791082       -1.6166487196
 H        12.6829333667       -5.6820607749       -3.1540825652
 H        11.4637283277       -6.0928028842       -4.3519747739
 H        13.2075906291       -6.1071587098       -4.7427634807
 H         9.2718305447       -9.5978991461      -10.1808380498
 H        10.8523844403       -9.9236153721       -9.5024700989
 H        10.4341909897       -8.2224796419      -10.1430478578
 H         8.7542234989       -6.8068089499       -7.9447362573
 H         7.9593320030       -8.0379989154       -6.9978611287
 H         7.6044086747       -7.8860969374       -8.7247959818
 Na        9.3309826930       -8.9629881605       -4.5512554444
 Na      -11.5574611552        5.3576157922      -13.9633319551
