232

 C         8.5550357773      -11.1072972323       -8.9048748003
 C         8.9729306483      -10.1686190248       -7.7754407328
 O         8.5046253993      -10.2820731162       -6.6728832918
 C         9.8850127880       -8.9067983084       -8.1026397181
 C        10.8659747984       -8.7040865876       -6.9321081878
 O        10.5798510159       -8.1332945849       -5.8918900480
 C        12.3652620678       -9.0321971571       -7.1920800999
 C        13.1950755657       -8.4813557125       -6.1234992839
 C        12.5424762838       -8.7181640749       -4.7299183747
 O        12.1415370467       -9.8032854340       -4.4079096179
 C        12.5898015636       -7.5336259278       -3.6432913745
 C        11.2774622576       -7.6072731883       -2.7622282415
 O        10.2646647117       -7.1517633205       -3.1885425133
 C        11.4410257938       -8.0291570765       -1.3325366181
 C        10.1689130015       -8.6514746676       -0.4866291527
 C         9.1832107686       -9.6011658932       -1.2189296066
 O         9.1018058459       -9.5561087157       -2.4312408093
 C         8.2435387288      -10.6278664450       -0.4249735372
 C         6.7698781263       -9.8468719151       -0.5211980946
 O         6.4344745687       -9.0805042409        0.3239073220
 C         6.0053185429      -10.0100625152       -1.8698566435
 C         5.3177437059       -8.6759929644       -2.2110031750
 C         5.9843897778       -8.0368909581       -3.4043319652
 O         6.8392536803       -8.6583007604       -4.0280255141
 C         5.4807714585       -6.6340429119       -4.0043935966
 C         4.2060945155       -6.9112129804       -4.9249329994
 O         4.0042982454       -8.0210269833       -5.3244503518
 C         3.3026377760       -5.6569748221       -5.2197989120
 C         2.4130357407       -6.1584426505       -6.4149814762
 C         0.9655341627       -5.5812667222       -6.4586214999
 O        -0.0092215394       -6.3295345872       -6.5086881962
 C         0.7423060743       -4.1122324395       -6.8350210187
 C        -0.7259134750       -3.6581471788       -6.1965886545
 O        -0.7474844103       -2.9806684042       -5.1527581967
 C        -1.9528360448       -4.0420432176       -6.9303088809
 C        -3.1885771508       -3.2727920820       -6.2752910980
 C        -3.3689759984       -1.9054125672       -6.8273172487
 O        -2.6783530743       -1.4896211988       -7.7557155931
 C        -4.6309869695       -1.0084287135       -6.3405293984
 C        -4.6312647147        0.1562473520       -7.2559516560
 O        -4.3775475924        1.3157164303       -6.9241714062
 C        -4.9127162111       -0.1464228027       -8.8226469497
 C        -5.5415024217        1.1554090488       -9.4607336350
 C        -6.9501260707        1.3785130695       -8.8507394484
 O        -7.6948999618        0.4638048868       -8.5984552995
 C        -7.6034537881        2.7541704629       -8.6473904261
 C        -7.5664687264        3.6053890785       -9.9735491714
 O        -6.9041803608        3.2109078078      -10.9285484631
 C        -8.1657137423        5.0672922346       -9.9871400390
 C        -7.5777074847        5.9381849276      -11.1299630001
 C        -8.5273539049        6.0424609853      -12.4334942642
 O        -9.6744455043        5.6919284072      -12.3297578110
 C        -7.9418342949        6.4733509575      -13.8070621422
 C        -8.4805031312        5.3757243617      -14.9067154505
 O        -9.5618711384        5.4276935947      -15.4549711624
 C        -7.4993942166        4.3224074799      -15.2131953569
 C        -8.1059880973        3.1025468451      -15.8420245311
 C        -8.8146476796        2.1346745179      -14.8526594242
 O        -8.4115954338        2.0738229055      -13.6975591469
 C       -10.1193682604        1.3943589819      -15.2356384824
 C       -11.2080826006        1.8861356913      -14.1400265272
 O       -11.6020602081        3.0600643241      -14.1496438770
 C       -11.7567611194        0.8467999038      -13.1688060492
 C       -12.5822013453        1.5493527394      -12.0999918206
 C       -13.9658719395        2.0873305040      -12.7556697633
 O       -14.3056050572        1.6862557198      -13.8710660969
 C       -14.7138261153        3.3718088408      -12.2030899931
 C       -13.8661532749        4.6021816290      -12.8449130391
 O       -12.8027680458        5.0302869744      -12.4393654421
 C       -14.5709312064        5.4004980560      -13.9473523755
 C       -14.5082356193        4.6849915684      -15.3783711902
 C       -13.7636961831        5.8022042894      -16.3106081964
 O       -12.6933686846        6.3345521784      -16.0400532692
 C       -14.4766482303        6.2165653100      -17.6820401264
 C       -14.4736621583        4.8192618974      -18.5325591183
 O       -13.5841472712        4.1209572853      -18.3063515690
 C       -15.3600299804        4.7682522660      -19.8540054994
 C       -14.9403279557        3.6714280660      -20.8661599635
 C       -15.1963113938        4.0576470559      -22.3364413174
 O       -14.2203420452        4.2715760843      -23.0015765477
 C       -16.7058360709        3.9463570044      -22.9772603668
 C       -17.0512972253        2.3569478437      -22.9013375504
 O       -17.4893975397        1.8942721529      -21.8432636552
 C       -16.9923342744        1.4905111998      -24.1406977624
 C       -17.6600673169        4.7728235628      -22.1537353190
 C       -16.7448338526        4.3951771232      -24.4525991132
 C       -15.9302607224        6.6677746211      -17.3782879863
 C       -13.7700181235        7.2957649753      -18.4339484168
 C       -16.1886204933        3.3153416037      -12.7027378522
 C       -14.8090264066        3.4262874115      -10.6343299489
 C       -10.7321254882        1.8469716665      -16.5803381369
 C        -9.8017758843       -0.0877569635      -15.2074569483
 C        -8.7410669499        7.8240603786      -14.1501183825
 C        -6.4355753081        6.7426641227      -13.9136532848
 C        -9.1246298262        2.6100547281       -8.3799422619
 C        -6.8176186363        3.4343878449       -7.5378523882
 C        -5.9583491150       -1.7574982994       -6.1751702678
 C        -4.1070685542       -0.4976207631       -4.9220865987
 C         1.8039157261       -3.1962362332       -6.3459957730
 C         0.6378249549       -4.1824941675       -8.4112995830
 C         5.3317577758       -5.6800017349       -2.8429526666
 C         6.4921063651       -5.9663952820       -5.0368835021
 C         8.1495265751      -12.0036923673       -1.0832023225
 C         8.7833376425      -10.7681010857        1.0122886639
 C        13.8984977916       -7.8909480302       -2.7597794316
 C        12.5961723855       -6.0821128690       -4.2486521067
 C        10.4966667314       -9.0637818869       -9.4804293894
 C         8.7772071282       -7.7866100796       -8.0221642532
 H         7.7976579575      -10.6178800762       -9.5027068208
 H         7.9675287125      -11.9599026805       -8.5110359502
 H         9.2833202422      -11.5115902847       -9.5912402465
 H        12.5919182546       -8.8690579702       -8.1852347733
 H        12.2842989217      -10.1015367261       -7.0242852586
 H        13.2948288017       -7.4402051584       -6.1436684073
 H        14.1488824310       -8.8924344871       -6.1206534679
 H        11.9344358704       -7.2153657258       -0.7396089104
 H        12.1353911481       -8.8765390251       -1.2172348075
 H         9.7310179934       -7.7956587583       -0.0224361177
 H        10.6282903028       -9.1584121376        0.3642832024
 H         5.2574670521      -10.8399253503       -1.6349795205
 H         6.6301043492      -10.4199282090       -2.5990618774
 H         5.2668026298       -8.0099765093       -1.3402185331
 H         4.3082036460       -9.0261770866       -2.4760260371
 H         3.8455564900       -4.7866912430       -5.4320205880
 H         2.7680357235       -5.3804905730       -4.3072539248
 H         2.2815491447       -7.2452644959       -6.3032484810
 H         2.9104163264       -5.9520331404       -7.3588211310
 H        -2.0995803947       -5.1374706426       -6.8662219392
 H        -1.9502558123       -3.6533907991       -7.9016760305
 H        -3.0327790584       -3.2815776340       -5.1886740966
 H        -4.1659405355       -3.8337467400       -6.3751849781
 H        -5.6468592965       -0.9366847784       -8.9725361226
 H        -3.9780859008       -0.4176150745       -9.3036461345
 H        -5.5309735774        1.0665769770      -10.5293001853
 H        -4.9373452707        2.0768554265       -9.3059313783
 H        -7.8432675904        5.3822551370       -8.9773747436
 H        -9.3121775011        4.9801792780       -9.9246019726
 H        -6.6108388097        5.4815094736      -11.5266880208
 H        -7.4357676543        6.9513398487      -10.7081181143
 H        -7.0177650308        4.0502995399      -14.2728139078
 H        -6.7455616624        4.6661633110      -15.9639982180
 H        -7.3019436781        2.5871645585      -16.4153925473
 H        -8.7066898187        3.4585383994      -16.6808190110
 H       -10.9101628751        0.3055409059      -12.8003688627
 H       -12.3312480610        0.0656899424      -13.7539596112
 H       -12.0495998977        2.5267419185      -11.7477385890
 H       -12.7349872694        0.8951121887      -11.2868580084
 H       -13.9183404455        6.2925514494      -13.9188656050
 H       -15.6295486368        5.5663045720      -13.7218668417
 H       -15.4952161894        4.6901568208      -15.7404039189
 H       -14.0375025990        3.6890209662      -15.4301966117
 H       -15.4377667859        5.7428810938      -20.3032243655
 H       -16.4486408703        4.6010067937      -19.6274728380
 H       -15.4504957866        2.6983090719      -20.6544623317
 H       -13.9184667195        3.4229399692      -20.9676567922
 H       -16.0242077985        1.4600615462      -24.6720756794
 H       -17.6214922767        1.9319778008      -24.8665475741
 H       -17.3027930736        0.5805020569      -23.7847111711
 H       -17.1463685295        5.7327619065      -22.1653775211
 H       -17.7369690992        4.3833572701      -21.2004843154
 H       -18.5195954108        4.7812255613      -22.7477174463
 H       -17.6737852874        4.1770761366      -25.0500734812
 H       -15.8253126094        4.1480668627      -25.1734982437
 H       -16.7404710883        5.4907815618      -24.5436294572
 H       -16.5797114745        5.7895897118      -17.2167789544
 H       -16.3953621482        7.1169119503      -18.2805564310
 H       -15.9833791847        7.2758651467      -16.5035023872
 H       -13.7181969795        8.2052796057      -17.8016468591
 H       -14.3690867048        7.4805515490      -19.3220382791
 H       -12.7310635831        7.0712461697      -18.7764499225
 H       -16.2839010320        3.4673428544      -13.8199587556
 H       -16.7211817241        4.1017086399      -12.1172220647
 H       -16.7049184509        2.4519760094      -12.3103732881
 H       -15.0152224739        4.4215706714      -10.3593827116
 H       -13.7600033893        3.1798542149      -10.3365016306
 H       -15.5165238550        2.6325661372      -10.2314135846
 H       -11.5151734882        1.2655575547      -16.9607214252
 H        -9.9170560472        1.8529712459      -17.3662485033
 H       -11.1205612780        2.9204825795      -16.7258163092
 H        -8.9525340697       -0.4351815631      -15.7981853050
 H       -10.7618738385       -0.4623646802      -15.5459945011
 H        -9.5224039345       -0.4619503347      -14.1979037641
 H        -9.6456933685        7.5398652867      -14.5328576167
 H        -8.2774147895        8.4063618279      -14.9873731274
 H        -8.8979916021        8.5237734836      -13.3922369659
 H        -6.2309282798        7.3557199361      -13.1163477642
 H        -6.1525463804        7.2699579653      -14.8186152771
 H        -5.8272863621        5.8232605603      -13.8557758183
 H        -9.2591308157        2.4936277402       -7.2655756908
 H        -9.3723784061        1.6848194696       -8.8468632249
 H        -9.7044394094        3.3410573791       -8.8537642950
 H        -6.8378948445        4.4538821615       -7.5075971040
 H        -5.6998468146        3.2935133781       -7.6881043674
 H        -7.0933688715        3.1138815126       -6.5427769704
 H        -5.8531283040       -2.3726512961       -5.2427514423
 H        -6.1973440935       -2.3050770289       -7.0599961172
 H        -6.6775448454       -1.0135189019       -6.0341519376
 H        -4.7786015990        0.2263518838       -4.5736246497
 H        -3.1908028072        0.0948557979       -5.0141514366
 H        -4.0883916783       -1.3483394157       -4.1194332976
 H         1.5199277706       -2.2096562065       -6.8069744925
 H         2.7696377693       -3.5583121252       -6.6406012448
 H         1.7170028247       -2.9653558118       -5.2873925869
 H         1.4719294819       -4.7019834815       -8.8636418839
 H         0.4997662383       -3.1797509765       -8.7769314879
 H        -0.2291515491       -4.7001634530       -8.6522124923
 H         6.2719882989       -5.5135941972       -2.3609892573
 H         4.8030528250       -6.3018429440       -2.1551951278
 H         4.6581023923       -4.7857143478       -2.9026593359
 H         6.7297632488       -6.7022435991       -5.8140599539
 H         7.3342245008       -5.7588518720       -4.3587065111
 H         6.0203142347       -4.9955288811       -5.4020419660
 H         7.8869790141      -11.8761088418       -2.2105646627
 H         7.3633562464      -12.7450419752       -0.8270406939
 H         9.0096664440      -12.5766092905       -1.0792912281
 H         9.1310183097       -9.7792495028        1.3820289381
 H         9.6650149720      -11.3854166608        1.1889959286
 H         8.0965881455      -11.2544818131        1.6866945553
 H        14.8779140488       -8.1014444491       -3.2912727752
 H        13.7221355475       -8.8643632948       -2.4081219822
 H        14.1983157296       -7.1142025141       -2.0489573708
 H        12.2350032538       -5.4671960195       -3.4195878737
 H        11.8328402071       -6.0328867494       -4.9865215547
 H        13.6022312254       -5.6852463755       -4.5611361303
 H         9.7193849462       -8.8912764693      -10.1996646374
 H        10.9483845918      -10.0492649555       -9.7124759563
 H        11.1766376151       -8.2642643585       -9.6927834167
 H         9.2296043225       -6.9110467498       -8.5306133543
 H         8.4884895037       -7.4523367485       -7.0105314150
 H         7.9066838938       -8.0409580792       -8.6797782241
 Na        8.8882407967       -9.0597207560       -4.4092140040
 Na      -11.3667959780        5.7008479541      -14.1975082660
