232

 C         8.6137141943      -11.0898864247       -8.8027517490
 C         8.9262233242      -10.1052480671       -7.7737352533
 O         8.4456647400      -10.2581173294       -6.6853936351
 C         9.9519049113       -8.8251731970       -8.1462585145
 C        10.9682497344       -8.6123624474       -7.0862293248
 O        10.5807068927       -8.1839669542       -6.0231642454
 C        12.4433878231       -9.0437004341       -7.1928327039
 C        13.2521692962       -8.4538690665       -6.0973126772
 C        12.6423289365       -8.6513195347       -4.6502276298
 O        12.1935433959       -9.7126673897       -4.2431985154
 C        12.6945533626       -7.4480068185       -3.6771146222
 C        11.1494918522       -7.5773781188       -2.8560298256
 O        10.0705796081       -7.1149663715       -3.2380538636
 C        11.2663679842       -8.4085642825       -1.5519903888
 C        10.0380653232       -8.5939611015       -0.7057591552
 C         9.1442215015       -9.5940096614       -1.3077573537
 O         9.0671896336       -9.6758168481       -2.5004147665
 C         8.2208529095      -10.5054503967       -0.4461196601
 C         6.8486843231       -9.8860404764       -0.4458818055
 O         6.4547131056       -9.2534551429        0.5378801771
 C         5.9144378289       -9.9627233675       -1.7114798490
 C         5.4727015996       -8.5365199292       -2.0843695472
 C         6.0039188795       -7.9494869850       -3.4529376829
 O         6.6043371855       -8.6354723627       -4.2290958076
 C         5.3904225233       -6.6195478474       -3.9069115616
 C         4.1598328051       -6.9752291042       -4.7908017032
 O         4.0452450327       -8.1272986420       -5.1905928659
 C         3.0596447862       -5.8641366613       -5.0926042442
 C         2.4467219947       -6.0218113865       -6.4427809758
 C         1.0022936815       -5.6101462398       -6.4385987519
 O         0.0761256712       -6.3113603856       -6.1123105929
 C         0.7239928029       -4.0393310823       -6.9160897296
 C        -0.5892970964       -3.6298894284       -6.2084757074
 O        -0.6243116356       -3.1208561538       -5.1163745674
 C        -1.9072875309       -4.1157577776       -6.9307072993
 C        -3.2253537167       -3.4565317360       -6.3027815281
 C        -3.3416013878       -1.9704081365       -6.8001306563
 O        -2.4319727675       -1.4251172549       -7.4062584976
 C        -4.4839975679       -0.9727020116       -6.2846465719
 C        -4.5528987922        0.3080537191       -7.3551874895
 O        -4.3218967181        1.4282388360       -6.8905308482
 C        -4.8542123272       -0.0774788850       -8.7908328097
 C        -5.6991616869        1.0045319006       -9.4690125771
 C        -7.1614868878        1.1002886232       -8.8686472698
 O        -7.7413522644        0.0639444838       -8.5689383815
 C        -7.6952294584        2.6017562625       -8.6305048319
 C        -7.4231472289        3.5809988276       -9.9441224569
 O        -6.6712912687        3.3250671861      -10.8322962412
 C        -8.0902276100        5.0013833624      -10.0191193454
 C        -7.5828628772        5.7832807998      -11.2316156902
 C        -8.5446809591        5.9202834413      -12.3594523897
 O        -9.7473909579        5.6219191286      -12.3333659927
 C        -7.9041155855        6.4497982863      -13.7022602933
 C        -8.2982114150        5.4104114855      -14.8048177993
 O        -9.3758970758        5.5219582683      -15.4270873102
 C        -7.4029475892        4.2056566845      -15.1954297416
 C        -8.3386765470        3.0954320198      -15.8894862153
 C        -8.9356758544        2.1461214154      -14.9462549578
 O        -8.4820998786        1.9378070021      -13.8668022686
 C       -10.2363586484        1.3500671620      -15.3274615281
 C       -11.3175642367        1.9020411020      -14.3647481675
 O       -11.7591446931        3.0229152085      -14.4824677444
 C       -11.7908570618        0.9557017453      -13.1558436337
 C       -12.6250356044        1.7909259549      -12.1741322498
 C       -13.9306757649        2.2214322577      -12.8550373811
 O       -14.4290151371        1.6378335435      -13.7416302891
 C       -14.6332739122        3.6612876726      -12.2179557401
 C       -13.9313712378        4.9043931245      -12.7914190615
 O       -12.8290756761        5.2125984943      -12.2807259535
 C       -14.4780060716        5.6993911986      -14.0533522361
 C       -14.4783678580        4.9258573040      -15.3437678799
 C       -13.8225573790        5.8316194901      -16.3918005357
 O       -12.7022952837        6.3246151700      -16.2595530340
 C       -14.6591267386        6.1680851478      -17.7133193633
 C       -14.6326431922        4.9026720233      -18.5957620630
 O       -13.6588314953        4.0937219115      -18.5335224622
 C       -15.6180364961        4.6118523342      -19.7093122610
 C       -15.1699943070        3.5243564446      -20.7407217062
 C       -15.2753935570        3.9057425564      -22.2217943136
 O       -14.2452064269        4.2711978221      -22.7815633905
 C       -16.6563633129        3.8900770361      -22.9646326162
 C       -17.1946873601        2.4109692773      -22.8861102909
 O       -17.9625026510        2.0070616649      -22.0575001139
 C       -16.6904290508        1.5172175307      -24.0493183005
 C       -17.6294842172        4.6581860978      -22.0394360741
 C       -16.3901517470        4.4554305263      -24.3233341428
 C       -16.0808299270        6.5888013830      -17.4338947102
 C       -13.8758051135        7.3648216047      -18.4576549331
 C       -16.1846681324        3.4393646433      -12.6738753997
 C       -14.3673230795        3.6942357656      -10.7165295413
 C       -10.6685101641        1.5698371361      -16.7727392068
 C        -9.8997155258       -0.1875908193      -15.1844786119
 C        -8.6110871016        7.7707916335      -13.8693177630
 C        -6.3456533165        6.6947076626      -13.6089553141
 C        -9.1817733935        2.5483287745       -8.1091310288
 C        -6.8423056690        3.1853102482       -7.5065873062
 C        -5.8526736432       -1.7187301563       -6.1805230038
 C        -4.0723778908       -0.5712007318       -4.8533180307
 C         1.8355668219       -3.0318574707       -6.4428037364
 C         0.7258657434       -3.9552910601       -8.5146936194
 C         5.1713151442       -5.5946545827       -2.8071960813
 C         6.5269149482       -6.0784373264       -4.9233351106
 C         8.2833935225      -11.8956425497       -1.1721603910
 C         8.4640574612      -10.7785645636        1.0567454226
 C        13.9411896262       -7.6166725505       -2.7946930223
 C        12.8942223708       -6.0442895229       -4.4002763331
 C        10.5700292990       -9.0834320623       -9.5437009257
 C         9.0687666509       -7.4792821169       -8.2753098429
 H         8.2017512803      -10.7993854932       -9.7842442770
 H         7.8574718249      -11.7190176734       -8.3908468909
 H         9.5021023433      -11.6624337663       -8.9966495761
 H        12.7721315192       -8.7994932062       -8.2691034269
 H        12.2997140163      -10.1487079255       -7.2066126283
 H        13.6860683846       -7.4114336556       -6.3053813515
 H        14.2064762061       -9.0793523509       -5.8984944443
 H        12.0515777114       -7.8971259153       -1.0266278385
 H        11.6798638046       -9.4501447006       -1.5869236110
 H         9.4885818340       -7.6192247756       -0.4793874849
 H        10.4613306196       -8.8988787220        0.2865333839
 H         5.1446100599      -10.6572255385       -1.5526927837
 H         6.5128530101      -10.3650792682       -2.6052368733
 H         5.7042676408       -7.8185755604       -1.2902464456
 H         4.3773183585       -8.6400261884       -2.1407418583
 H         3.4913973078       -4.8133115216       -4.9756402342
 H         2.3460332796       -5.8613936321       -4.2566283336
 H         2.5356858030       -7.0906427557       -6.6164601647
 H         2.9551822046       -5.4784511698       -7.2471813589
 H        -2.1834058421       -5.1664836256       -6.7076858920
 H        -2.0405253060       -3.8879168359       -8.0524811159
 H        -3.1528091301       -3.5318973576       -5.2266922994
 H        -3.9844476753       -4.1432699850       -6.5681498504
 H        -5.4984936854       -1.0574654029       -8.6985758404
 H        -3.9766197871       -0.4319594906       -9.3387679988
 H        -5.8723248673        0.6495135072      -10.5374113196
 H        -5.1767025215        1.9329883669       -9.6927677256
 H        -7.9502082051        5.5181391571       -9.0773640865
 H        -9.0797816890        4.7985874481      -10.1362318829
 H        -6.7222417445        5.3808637313      -11.7344786652
 H        -7.3954992557        6.8024436854      -10.8137151472
 H        -6.9076210988        3.7331966008      -14.3082775318
 H        -6.6675468091        4.5449744452      -15.9396665799
 H        -7.7637718581        2.5438947134      -16.6470698929
 H        -9.0960596932        3.5817630708      -16.5417020632
 H       -10.8986158222        0.5804862978      -12.5852957896
 H       -12.1560780079        0.0752768967      -13.5720907615
 H       -12.0576324536        2.5992288939      -11.8276882398
 H       -12.8680932338        1.1005322080      -11.2616838578
 H       -13.9164046582        6.6239516555      -14.0637394086
 H       -15.5370800572        5.9180133790      -13.8692008454
 H       -15.5088078349        4.4447216894      -15.4690965763
 H       -13.7267043952        4.1386159750      -15.1752671920
 H       -15.7296551238        5.6245282360      -20.1774373867
 H       -16.5727495831        4.3575163645      -19.3025434860
 H       -15.7273124155        2.6311048664      -20.6581349090
 H       -14.1148432311        3.1903343563      -20.5753738883
 H       -15.8128275558        1.8786116274      -24.5243799617
 H       -17.4838846027        1.5449102960      -24.9045725457
 H       -16.5659010421        0.4821856849      -23.5892609052
 H       -17.3393177124        5.6938608202      -21.9514777503
 H       -17.5511041949        3.9949412393      -21.1448446686
 H       -18.5910180076        4.5893543692      -22.5818056194
 H       -17.3062113230        4.5999264879      -24.8630541803
 H       -15.8440942869        3.8884835867      -24.9627633653
 H       -15.9418325351        5.4560430587      -24.3573657370
 H       -16.6675396617        6.0263694463      -16.7212499955
 H       -16.5821584439        6.5708464536      -18.3672378821
 H       -16.0589808765        7.5899491760      -16.9622229504
 H       -14.4496191372        8.2617082959      -18.4868592333
 H       -13.5419537968        7.1487892189      -19.4815792799
 H       -13.0279306016        7.5936476906      -17.8549765205
 H       -16.4105453017        4.0047377154      -13.5440735675
 H       -16.9343272428        3.6999881346      -11.9424878285
 H       -16.4225139076        2.3800876224      -12.8981801626
 H       -14.9476340623        4.5881973546      -10.3278494246
 H       -13.3448111435        3.9542865838      -10.5714278860
 H       -14.7035302924        2.7643685499      -10.2936798537
 H       -11.5814293381        0.8936635439      -16.9554501508
 H       -10.0421805775        1.3312400693      -17.5884534900
 H       -11.0355157437        2.5264018809      -16.9926992764
 H        -9.2886055161       -0.4322168738      -16.0432249205
 H       -10.7614690689       -0.8271277846      -15.0199926663
 H        -9.1484231265       -0.2986333336      -14.4270744615
 H        -9.5354874115        7.7912166752      -14.5633767414
 H        -7.9527960308        8.4949341838      -14.2664924600
 H        -8.8805104810        8.2469693651      -12.8876191247
 H        -5.9352759153        7.6002016775      -13.0124132656
 H        -6.0463192576        6.9775029323      -14.6516059339
 H        -5.8589530941        5.7532410308      -13.4112708450
 H        -9.2071033532        3.3911913026       -7.5096077598
 H        -9.5031731594        1.5658235792       -7.6457970581
 H        -9.8689828226        2.6658630135       -9.0037887217
 H        -7.2799414949        4.1913148318       -7.1291385760
 H        -5.8700689749        3.5317495060       -7.7466773862
 H        -6.8556119013        2.5495998897       -6.6244985174
 H        -5.7912715016       -2.7317374953       -5.8649730711
 H        -6.2598342574       -1.7367284494       -7.1968224884
 H        -6.5233538215       -1.0783773038       -5.5423086897
 H        -4.7774272290        0.1751574065       -4.4308506851
 H        -3.1272671607        0.0158396737       -4.9004303357
 H        -3.9739582201       -1.3702035485       -4.2243382369
 H         1.6641505187       -2.1426530593       -6.9712939567
 H         2.8453783757       -3.4991240979       -6.6220878837
 H         1.6873287831       -2.6777750689       -5.4155325575
 H         1.7878712197       -4.0510442542       -8.7557091848
 H         0.4241389674       -2.9430809221       -8.8114516455
 H         0.1350823672       -4.7650668195       -9.0720823990
 H         6.1935071221       -5.2863928835       -2.5090128329
 H         4.5425360830       -5.8612869623       -1.9616443747
 H         4.6649867018       -4.7598033482       -3.1924661555
 H         7.1998453097       -6.9745583372       -5.0508208721
 H         7.0426224432       -5.1992225993       -4.5108527299
 H         6.0049388812       -5.7806672690       -5.8013903955
 H         8.1023702209      -11.8815617313       -2.2131797738
 H         7.5386683172      -12.5660963776       -0.7727461056
 H         9.2043224442      -12.5564312724       -1.0976895097
 H         8.3482307631       -9.8542881481        1.5461280962
 H         9.4305678633      -11.1056344686        1.4049999220
 H         7.7335341238      -11.4578272247        1.4969314040
 H        14.8414521561       -7.4555699590       -3.3371747182
 H        13.9919269703       -8.6614293568       -2.4139978764
 H        13.9049171814       -6.8013838722       -2.0547611288
 H        13.0306657392       -5.2579078623       -3.6726436527
 H        12.0141951089       -5.8318011296       -5.0274685922
 H        13.7712194197       -6.0795755015       -4.9804235776
 H         9.9060798612       -9.3750541713      -10.3867162086
 H        11.3658065247       -9.8455977414       -9.4894227577
 H        11.0662569387       -8.1394762417       -9.8871388253
 H         9.7242310780       -6.6375175446       -8.3801557280
 H         8.5438615762       -7.2872855843       -7.3587637899
 H         8.3940597543       -7.5139080355       -9.1319343966
 Na        8.9835715553       -9.1882355138       -4.8688402211
 Na      -11.5053060277        5.5154000658      -14.0782104111
