232

 C       -19.2317428094       -8.5564576167       -0.9698136430
 C       -18.6809097396       -9.9850268550       -1.1721237367
 O       -18.0578375156      -10.2438051339       -2.1996547087
 C       -18.7146036131      -11.1471207133       -0.1049650836
 C       -17.2584759756      -11.2450715717        0.3220841064
 O       -16.4230830064      -11.8448465994       -0.3469834513
 C       -16.6903291172      -10.3527426249        1.4431983051
 C       -15.1765744807      -10.0114863031        1.2594537384
 C       -14.9845357737       -9.0263804740        0.0715872449
 O       -15.8998769211       -8.3203296951       -0.3837599086
 C       -13.5891377576       -9.0996511894       -0.6533718176
 C       -13.8570282775      -10.0861696807       -1.8772121128
 O       -14.0765749223      -11.2960851214       -1.6649331077
 C       -13.7420826265       -9.5908451954       -3.3064424429
 C       -13.5491757584      -10.7131489744       -4.3806584117
 C       -14.7136798652      -10.6412586433       -5.3255501821
 O       -15.8072190139      -11.0077146798       -4.9820000742
 C       -14.3905386086      -10.1777528788       -6.7514563848
 C       -13.6154988436       -8.6980510116       -6.7456826008
 O       -12.6753044126       -8.4718167123       -6.0196243391
 C       -14.1050255650       -7.6132212059       -7.7314738810
 C       -13.3570984696       -6.3099661497       -7.8110964361
 C       -14.0856394118       -5.3882796545       -8.7854687372
 O       -15.0908620736       -4.8128045260       -8.4248283119
 C       -13.5962515138       -5.2106484097      -10.3564225497
 C       -12.0638775396       -4.8186337097      -10.1267707057
 O       -11.2703373498       -5.5464985782       -9.6059378311
 C       -11.7009900295       -3.4960741979      -10.7649931110
 C       -10.3747273947       -2.8689559230      -10.4675998169
 C       -10.3378615585       -1.3855607627      -10.6633290542
 O       -11.1901565358       -0.8510485730      -11.4286956060
 C        -9.1880766987       -0.4422986415      -10.0160878898
 C        -7.7240508851       -0.7052925486      -10.4520102722
 O        -7.5662153233       -1.8279825514      -10.9127020118
 C        -6.5071895096        0.1183407225      -10.2205455411
 C        -5.5920156995        0.0726524071      -11.4761093897
 C        -4.4539337944        1.0505809820      -11.4572983264
 O        -4.5943595823        2.1551438766      -11.0502325524
 C        -3.0851652498        0.5928438384      -12.3174066412
 C        -2.1333444816       -0.2947301761      -11.2896118073
 O        -1.9568868201       -1.4919739656      -11.2947457922
 C        -1.6940779167        0.4509580392      -10.0318857539
 C        -0.5804336739       -0.2377895695       -9.2747972722
 C        -0.3336435003        0.1981766199       -7.8628312818
 O        -1.1951295332        0.7735887137       -7.1181510384
 C         0.9773724686       -0.2036093866       -7.1962239128
 C         2.1084899217        0.6476549701       -8.0503497365
 O         2.6662949490        0.2028814960       -9.0190540949
 C         2.4026841395        2.0858769609       -7.6858217880
 C         3.7812925136        2.5560002063       -8.1645315075
 C         3.7465772615        3.2974832243       -9.5325816540
 O         2.9145335388        3.0231542705      -10.3279777623
 C         4.8091200682        4.5025531429       -9.9388456530
 C         4.9306226263        4.5703158015      -11.4684385093
 O         5.6985452451        3.8170172588      -12.0576275196
 C         3.7431352782        5.2718852452      -12.2072914575
 C         4.1636504847        6.7156386263      -12.6425346794
 C         4.4331404929        6.8708647575      -14.1816108992
 O         4.3186385576        5.9470198220      -15.0234423435
 C         4.7844161813        8.3038598328      -14.7391053625
 C         5.7839692604        8.1012081407      -15.9777538169
 O         5.4192306296        8.4036680616      -17.0732704761
 C         7.2009833465        7.7924307959      -15.6264440263
 C         7.8943520895        7.0150105711      -16.7426340986
 C         7.5622476353        5.5033782730      -16.9159552455
 O         7.1765758149        4.9717986281      -15.8766855412
 C         7.7937714553        4.8166551949      -18.2279278589
 C         9.2942172500        4.1409852959      -18.2922683024
 O        10.2049332786        4.6858243532      -17.7194175684
 C         9.5371292919        2.8728941901      -19.2160599273
 C        10.6839920595        1.9932375526      -18.6126295222
 C        10.0674730949        0.8680576290      -17.7370364686
 O         8.8740932964        0.7245423049      -17.7340763020
 C        10.9905530188       -0.2180596528      -17.1204991752
 C        10.7101744914       -0.3724615180      -15.5825505543
 O        11.4386683823        0.0323926581      -14.7327413655
 C         9.2193307121       -1.0122892080      -15.3169105908
 C         8.4019720545       -0.4369870454      -14.1650446937
 C         7.3310818060        0.6340587559      -14.4856685043
 O         7.5951872072        1.8109469150      -14.3453848026
 C         5.9198623013        0.1253731020      -14.8266815567
 C         5.4899965187        0.9845766867      -16.0625092713
 O         4.9534481688        2.0596758577      -15.9348980902
 C         5.3650275812        0.3454030526      -17.4362305052
 C         5.7458504099       -1.3738693262      -15.0131690199
 C         5.0237937595        0.5624857354      -13.5429112872
 C        10.9343507577       -1.5974314382      -17.8630713556
 C        12.5387817181        0.1828913308      -17.2234655865
 C         6.5629105290        3.7973489130      -18.3754584876
 C         7.8535641422        5.8144113235      -19.3946963887
 C         3.5160503040        9.0301844127      -15.3410172506
 C         5.3249097306        9.2334825142      -13.5922409138
 C         4.2057201954        5.8545803474       -9.3629862971
 C         6.1563753666        4.1958520211       -9.2019044357
 C         1.1104877634        0.1393713333       -5.6533484235
 C         1.2659377059       -1.7097740060       -7.2969338145
 C        -3.4663885270       -0.2347069626      -13.5277276331
 C        -2.4352616676        1.8912434577      -12.7144410948
 C        -9.5739707957        1.0308216876      -10.2534024667
 C        -9.3073422805       -0.6418104285       -8.5014637381
 C       -13.5373155751       -6.6873009415      -10.9037414528
 C       -14.5035262665       -4.4058444723      -11.2362453474
 C       -13.4266370485      -11.2843853993       -7.3344167746
 C       -15.6156813498      -10.2468624736       -7.5485084425
 C       -13.1914210103       -7.6357729072       -0.9555191747
 C       -12.4836996067       -9.7747799818        0.2140027163
 C       -19.6356761354      -10.8499961430        1.1048053115
 C       -19.1645566175      -12.5246917609       -0.8845904066
 H       -18.4733814479       -7.9413976468       -0.4055670949
 H       -20.1663384597       -8.6755459927       -0.4959795810
 H       -19.4029791692       -8.0977526018       -1.9315427367
 H       -16.6691484126      -10.9712476342        2.3441693512
 H       -17.4092360452       -9.5453858508        1.5767818890
 H       -14.5831178852      -10.9350426771        1.3094333568
 H       -14.9203817515       -9.4373390405        2.1197879410
 H       -12.9878660540       -8.8663277946       -3.4444293497
 H       -14.7161294001       -9.1187599069       -3.5328158257
 H       -13.6302141446      -11.7719484065       -3.8265944527
 H       -12.6072291802      -10.5676277308       -4.9237563873
 H       -15.2073755874       -7.4879376552       -7.5362840601
 H       -14.1318924244       -8.1783581802       -8.6771859389
 H       -12.2994663280       -6.4739040182       -7.9871686921
 H       -13.4752969313       -5.8468252937       -6.8505861177
 H       -12.4992381894       -2.7401960036      -10.5708257834
 H       -11.8823620199       -3.5791766613      -11.8426163780
 H        -9.6503628154       -3.2585035647      -11.2263281022
 H        -9.9473666370       -3.1765807874       -9.4928611179
 H        -6.0851886914       -0.3849081764       -9.3215658091
 H        -6.7034973789        1.2041115698       -9.9078328540
 H        -6.3768308113        0.3405998853      -12.2752109292
 H        -5.2919486340       -0.9319812268      -11.5768132804
 H        -2.6118301448        0.4788264496       -9.3617909131
 H        -1.4514390006        1.4942050740      -10.2145452009
 H         0.3293292493       -0.0856006944       -9.9978293211
 H        -0.8809460865       -1.2862243289       -9.4355581395
 H         2.3265994542        2.2742554594       -6.5826467117
 H         1.6048058701        2.6731934700       -7.9107901551
 H         4.4540172539        1.6845101864       -8.3180977108
 H         4.2630197485        2.9638038062       -7.2495757350
 H         2.9205846172        5.1809435355      -11.4769666639
 H         3.5689263855        4.6413845518      -13.1739727405
 H         5.1046411724        7.0145078999      -12.1933662435
 H         3.4246640005        7.4815413081      -12.3401837595
 H         7.1485622039        7.3824410716      -14.6243615420
 H         7.7872611561        8.7486331784      -15.5317206000
 H         8.9767391079        7.2272774709      -16.5299431730
 H         7.6881509363        7.5218942310      -17.5926416422
 H         9.9288476106        3.2680928617      -20.1674542920
 H         8.6467939186        2.3234502176      -19.3514054749
 H        11.1766378512        2.6830894428      -17.9298511142
 H        11.4020077190        1.5514189830      -19.2640466113
 H         9.3562349845       -2.0870389202      -15.1946859714
 H         8.6288636788       -1.1278866322      -16.2327507172
 H         9.0191253981        0.0846476284      -13.4826736395
 H         7.8769473937       -1.2414141883      -13.5036793383
 H         6.2532950702       -0.2378890270      -17.7757557434
 H         5.3292391280        1.2890061522      -18.1535954606
 H         4.5115020997       -0.2397636065      -17.6716548226
 H         4.7205148333       -1.5828424304      -14.7219771474
 H         6.3488631748       -2.0605838171      -14.3027719408
 H         5.9531958609       -1.8484190052      -15.9987409919
 H         3.9825078640        0.6948628553      -13.9767941330
 H         5.5245570828        1.5292422945      -13.3662792916
 H         5.2024677874       -0.1212181250      -12.6788522857
 H        11.3853975083       -1.5348247584      -18.8329672344
 H         9.9642444341       -2.0453149461      -18.1487604727
 H        11.3456724734       -2.3618069525      -17.2521494351
 H        12.8882412713        0.2318536564      -18.2392694437
 H        13.1966603361       -0.5729734527      -16.8360283596
 H        12.7097737629        1.1478531375      -16.7688787676
 H         5.7007185714        4.1539109606      -17.9125416331
 H         6.8642387410        2.8113804366      -17.9831073485
 H         6.3952263786        3.7137608370      -19.4430526391
 H         8.5740927360        6.6662688678      -19.2204069734
 H         6.9161468117        6.0900672797      -19.5605281035
 H         8.3322143492        5.2736666411      -20.2138799318
 H         2.7814881495        9.1399184880      -14.4766780849
 H         3.0550533869        8.3591921968      -16.0046736414
 H         3.7836059293       10.0101194090      -15.8473756401
 H         5.6688544661       10.2704304113      -13.8553116683
 H         6.2156782126        8.9116719670      -13.0047282257
 H         4.4882440436        9.4134618837      -12.9336248017
 H         4.2524411334        5.9087447321       -8.3092975962
 H         3.1353445380        5.9825178687       -9.7196932319
 H         4.7916149941        6.7407614719       -9.6603137137
 H         6.8399828458        4.7103088140       -9.8070658862
 H         6.2946009644        3.1590049097       -9.0932208915
 H         6.3385886879        4.6702765668       -8.2559874589
 H         0.6975101298        1.0981672327       -5.3981579543
 H         2.1329859129        0.1762895991       -5.4111450044
 H         0.6007595051       -0.5937122429       -5.1192583223
 H         0.2885373834       -2.1282190680       -7.1687192674
 H         1.9656348026       -2.1568603622       -6.6200454314
 H         1.4201112217       -1.8948301787       -8.3811118472
 H        -3.1309445137       -1.2863348706      -13.5119097786
 H        -2.8148270628        0.1482609982      -14.3011164844
 H        -4.4892711682       -0.1305439183      -13.9051798977
 H        -1.5417279063        1.6817284625      -13.3716185931
 H        -2.1579833143        2.5344032671      -11.8703941630
 H        -3.0550504607        2.4229559461      -13.3883808660
 H       -10.5045776842        1.3047388026       -9.6503482862
 H        -9.8418362502        1.3395619331      -11.2254147768
 H        -8.7740728849        1.6916513325       -9.9452881323
 H       -10.3486026607       -0.3699894596       -8.3073542758
 H        -8.5899980995        0.0533059094       -8.0931905246
 H        -9.0319647603       -1.6527188146       -8.2016877073
 H       -13.0712665820       -6.7526384570      -11.8729597912
 H       -14.5125350774       -7.2086612666      -10.9923198516
 H       -12.8877181813       -7.2894671584      -10.2728510843
 H       -15.1591691548       -5.1498678384      -11.6675931185
 H       -13.8986254970       -4.1057556576      -12.0935690594
 H       -14.9465505702       -3.4719372021      -10.7941261494
 H       -12.5688504198      -11.5156579244       -6.6874558861
 H       -13.0000222417      -10.9329922652       -8.3084453074
 H       -14.0082878588      -12.2014061518       -7.4912247423
 H       -16.3709611725       -9.5376239563       -7.2325529956
 H       -16.1409296070      -11.1863007557       -7.6147173523
 H       -15.5942759237      -10.0699409359       -8.6407306233
 H       -13.9590454095       -7.1561691972       -1.5016970898
 H       -12.2486577083       -7.5258550447       -1.5128895235
 H       -13.0437384994       -7.1484879190        0.0128933490
 H       -12.7893741994      -10.7218610949        0.4700943900
 H       -12.3839849273       -9.0771269425        0.9908939331
 H       -11.5816783429       -9.8507349682       -0.4432861309
 H       -19.6269535625       -9.8138425083        1.4584532400
 H       -19.3060932846      -11.4084788733        1.9368095911
 H       -20.5794941117      -11.2199536679        0.8005940366
 H       -19.4761765607      -13.2707783154       -0.1118870781
 H       -18.2847353066      -12.8435065825       -1.3682038854
 H       -19.9475836762      -12.4281516936       -1.6021780820
 Na      -16.1160219789      -11.7641307612       -2.7248928218
 Na        5.7295249087        3.6614417146      -14.6765256953
