232

 C         8.6913489785      -11.1135963298       -8.9515146699
 C         9.0258689434       -9.9740626173       -7.9596374763
 O         8.5239823679      -10.0543154319       -6.8408001782
 C        10.0020880944       -8.8539858571       -8.3126775224
 C        11.0074219223       -8.6548386963       -7.1629329161
 O        10.6280932291       -7.9839612189       -6.2045102424
 C        12.4836558330       -9.1526541843       -7.1634528027
 C        13.3685275661       -8.5776543879       -6.0374335724
 C        12.6482911868       -8.5940723193       -4.6571830253
 O        12.2765182438       -9.7043571107       -4.3243353520
 C        12.7129928183       -7.3800369967       -3.6590928675
 C        11.3981186770       -7.6169908395       -2.8355082717
 O        10.4062813854       -7.1485663536       -3.3609519733
 C        11.3086839377       -8.5614682072       -1.6601508375
 C         9.8582322365       -8.5436273778       -1.0367011421
 C         9.0755675684       -9.7442899392       -1.3846978672
 O         8.9040237212      -10.0216420579       -2.5997023417
 C         8.2703398579      -10.5484427176       -0.4738883591
 C         6.6861272612       -9.8594206550       -0.4354233247
 O         6.3662478460       -9.3440124005        0.5794321849
 C         5.8262951577       -9.8863034534       -1.7226515258
 C         5.3874225093       -8.3963110946       -2.1071800364
 C         6.0348753184       -7.9661741289       -3.4265151231
 O         6.7487258762       -8.7430739222       -4.0713119580
 C         5.4689357888       -6.5831388736       -4.0965692394
 C         4.0738153118       -7.0423107514       -4.7791241804
 O         4.0326192537       -8.1837379145       -5.1157729914
 C         2.9263421067       -6.0992949643       -4.8959633834
 C         2.5509784881       -5.9678616187       -6.3961201840
 C         1.0857786964       -5.3365840425       -6.4418089135
 O         0.2587038719       -6.0396114872       -5.8890698675
 C         0.7780839447       -3.9452672098       -6.9874996366
 C        -0.7299891179       -3.6587120949       -6.2384577147
 O        -0.6658962797       -3.1564485180       -5.1531408178
 C        -1.9745477396       -4.1755268787       -6.8710693785
 C        -3.2670959813       -3.3696396772       -6.4459031847
 C        -3.1196272681       -1.9079897815       -6.7895833011
 O        -2.1580907060       -1.4408171236       -7.3374724301
 C        -4.2551480634       -0.9928507621       -6.2152569464
 C        -4.4560026501        0.1524315258       -7.2177247738
 O        -4.4210128706        1.2754445848       -6.8626583548
 C        -4.7663944859       -0.1242652451       -8.7475813203
 C        -5.6884304438        0.8605504425       -9.4103093372
 C        -7.1048613835        0.9983868726       -8.8352659592
 O        -7.9738352885        0.1633772227       -8.6106012276
 C        -7.6982798908        2.5443874299       -8.6252556344
 C        -7.3491743804        3.4168340862       -9.7547436264
 O        -6.5575594249        3.1521062274      -10.6397321554
 C        -8.2688927458        4.6518409920      -10.0190354053
 C        -7.6654937762        5.6119479734      -11.0095609461
 C        -8.5468592633        5.6793725057      -12.3062500385
 O        -9.6942182584        5.3620759062      -12.3013859598
 C        -7.8525793732        6.4216655762      -13.6095826388
 C        -8.3722297181        5.4873398825      -14.7849699633
 O        -9.4598564570        5.6779016558      -15.2187320267
 C        -7.5542658851        4.2269263082      -15.1346839958
 C        -8.3201734683        3.1593323313      -15.9656698314
 C        -8.9970575158        2.1086424802      -15.0872282752
 O        -8.4623757806        1.9089005703      -13.9924589942
 C       -10.2620956744        1.3074272555      -15.4727003914
 C       -11.3552373145        1.9418796820      -14.5359169008
 O       -11.8226359647        3.0334518762      -14.8458963455
 C       -11.6912150897        1.2447765089      -13.1618559691
 C       -12.5859445537        2.1421687009      -12.2695354549
 C       -13.9441184970        2.5440256073      -12.8636232523
 O       -14.5099270647        1.7980956186      -13.6423519429
 C       -14.6653514573        3.8644589418      -12.1857769562
 C       -13.9638584321        5.0647408573      -12.7397335601
 O       -12.8087280436        5.2735133140      -12.4139164002
 C       -14.7933903608        5.8210416818      -13.9928732873
 C       -14.4942573056        5.0299076854      -15.3879077115
 C       -13.8663287858        5.9357995235      -16.4492342440
 O       -12.7011998544        6.2118919363      -16.2315036342
 C       -14.5880927674        6.2088095752      -17.7506708793
 C       -14.4848823386        4.8318396613      -18.5997462274
 O       -13.5929476652        4.0650385809      -18.4502155947
 C       -15.5709913827        4.6187231558      -19.6112027334
 C       -15.5416477929        3.3492524616      -20.4922996673
 C       -15.3789531225        3.8343062481      -21.9920975616
 O       -14.3093446685        4.1521648544      -22.4240174241
 C       -16.6528318418        3.8639699120      -22.8283872349
 C       -17.1851222667        2.4390085017      -23.0491372179
 O       -18.1492828678        2.0360880554      -22.4280292757
 C       -16.4497641829        1.4101454476      -23.8489857301
 C       -17.8409828215        4.8363623090      -22.2282611225
 C       -16.4014946638        4.5852309907      -24.1616850797
 C       -16.0587193473        6.4729635456      -17.3792803663
 C       -14.0051510913        7.2826079327      -18.6895811264
 C       -16.1249802062        3.8173908902      -12.4027314990
 C       -14.4295209554        3.5849882687      -10.5616903218
 C       -10.6850954100        1.4199424944      -16.9401501721
 C       -10.1376493052       -0.1919848251      -15.1012726239
 C        -8.4349472637        7.8044951768      -13.8964032246
 C        -6.3319690493        6.4581888590      -13.5078510345
 C        -9.2438441878        2.4871640474       -8.2557112244
 C        -6.7579455238        3.0385707718       -7.4292245579
 C        -5.6907035583       -1.7247251940       -6.2555552551
 C        -3.9965828614       -0.4220610176       -4.7885111491
 C         1.9051190697       -2.9173080309       -6.4223337799
 C         0.5526641613       -3.9613986827       -8.4932960945
 C         5.0109929922       -5.6446268191       -2.8663568339
 C         6.4269097483       -5.8384749740       -4.9790841418
 C         8.0830765005      -11.9813528840       -1.0147692498
 C         8.9651231819      -10.6381476307        0.8866860947
 C        13.9383367916       -7.3997394804       -2.6612489319
 C        12.4470251585       -5.9821498978       -4.3194368005
 C        10.7026824957       -9.1107990793       -9.6688535174
 C         9.1816117806       -7.6168049833       -8.4745374929
 H         8.5104882962      -10.7640311617       -9.9585171248
 H         7.7342933069      -11.6374284510       -8.7082765713
 H         9.5813708337      -11.7958962535       -9.1179614491
 H        12.8928155714       -8.9968626544       -8.1078639139
 H        12.3633869103      -10.2407253523       -7.1404937476
 H        13.7414916990       -7.6310246031       -6.2297537129
 H        14.2351168806       -9.1817949966       -6.0495416774
 H        12.1982165058       -8.2889429909       -1.0113790733
 H        11.5849666971       -9.5641209552       -1.9369794786
 H         9.4196489152       -7.7327623573       -1.5236029961
 H         9.8991149352       -8.3329692519       -0.0107949454
 H         4.9390392763      -10.5674266108       -1.4921618611
 H         6.3436868419      -10.3690546330       -2.4823143563
 H         5.6538970445       -7.6590340558       -1.3221812551
 H         4.3057476681       -8.3048441598       -2.3311211961
 H         3.0815693927       -5.1587542055       -4.4372979269
 H         2.0932266790       -6.4995627341       -4.3008480363
 H         2.6399851780       -7.0069497174       -6.8033957926
 H         3.2822915134       -5.3650648480       -6.9567099050
 H        -2.1130725147       -5.2064093701       -6.6697662002
 H        -1.9443823661       -4.0543744509       -7.9027926999
 H        -3.2693974859       -3.4324340674       -5.3400616514
 H        -4.2046571151       -3.9162885464       -6.8092597095
 H        -5.0765712197       -1.1004139433       -8.8479109469
 H        -3.7661102930       -0.1677680199       -9.3195644851
 H        -5.7907835144        0.7998977755      -10.4595354962
 H        -5.1807321065        1.8230046528       -9.3911128002
 H        -8.4590445749        5.0713160701       -9.0126860575
 H        -9.2500341030        4.0937329997      -10.4025807515
 H        -6.6213111170        5.4360834183      -11.3190349205
 H        -7.7014551105        6.5694945207      -10.5634452224
 H        -7.1882429407        3.7381162696      -14.2621392408
 H        -6.7225795633        4.6136852328      -15.7134903795
 H        -7.5929926272        2.7176902745      -16.6160947045
 H        -9.0283967712        3.6702034526      -16.6154220841
 H       -10.7668778372        0.9699248125      -12.6845527208
 H       -12.0576012949        0.1915338471      -13.4870187259
 H       -12.0719225769        3.1487793036      -12.1324643311
 H       -12.7059250597        1.6904602981      -11.3581394903
 H       -14.2644388684        6.8075491263      -14.1017196804
 H       -15.8244118827        6.0367085367      -13.6490033848
 H       -15.3820343052        4.6390836317      -15.7381701832
 H       -13.8296036369        4.1994778304      -15.1700881150
 H       -15.6605511658        5.6141805381      -20.0783507718
 H       -16.4442042431        4.4741010057      -18.8850344843
 H       -16.5033423281        2.7349877502      -20.3709296584
 H       -14.7265151616        2.7230078614      -20.1004075671
 H       -15.3908249070        1.8024681111      -23.9503121165
 H       -16.8198997595        1.4013654205      -24.7966826479
 H       -16.5121869759        0.4606747759      -23.3629472100
 H       -17.3703357087        5.8190451811      -22.0457164907
 H       -18.3193307464        4.2979888737      -21.4456353879
 H       -18.4434739977        5.0106246730      -23.1022247620
 H       -17.2285595239        4.7069936365      -24.8693957472
 H       -15.7441845758        3.9824969545      -24.8158157502
 H       -15.9280912132        5.5419159086      -24.1038603374
 H       -16.5167457955        5.6003958942      -16.8748815553
 H       -16.6733391255        6.7446254188      -18.2749528561
 H       -16.1977545635        7.1919648788      -16.5935729239
 H       -14.8160844698        7.3891701153      -19.4583312880
 H       -13.1896759478        6.9820127516      -19.2980879920
 H       -13.8200286095        8.2717286766      -18.2276801824
 H       -16.4963785029        3.8075520378      -13.4876476891
 H       -16.7225656376        4.6655180069      -11.9585183134
 H       -16.5110032437        2.8830384114      -12.0102941743
 H       -15.0986162694        4.1232869449       -9.9649038388
 H       -13.3930171921        3.8383276243      -10.2835637139
 H       -14.7154379812        2.5621256541      -10.4744795931
 H       -11.4601132402        0.8408322560      -17.3283060671
 H        -9.9074325565        1.1212202937      -17.7057319762
 H       -10.9364345360        2.4775553404      -17.1058495900
 H        -9.3884617185       -0.7176669723      -15.6789129326
 H       -11.1524428874       -0.5868521469      -15.1757226332
 H        -9.8511568936       -0.2695116854      -14.0531706444
 H        -9.4618566200        7.6574993454      -13.9505414165
 H        -8.1312776816        8.2409526801      -14.8961089319
 H        -8.2497707055        8.5919973111      -13.1879308675
 H        -6.1176916892        7.0842970398      -12.7129310949
 H        -5.9091208330        7.0235725925      -14.2921840157
 H        -5.8483897200        5.4713366571      -13.3382336363
 H        -9.7162928557        3.4577226342       -8.6680238800
 H        -9.2996990876        2.2824342670       -7.2244270193
 H        -9.6947225582        1.6222889154       -8.6806826133
 H        -7.0461598670        3.9526989398       -7.0247464228
 H        -5.8230535322        3.3504167495       -7.8870408950
 H        -6.5605246141        2.3431900456       -6.5999796981
 H        -5.5862772045       -2.6483945589       -5.6313953326
 H        -6.0031050611       -2.1465419595       -7.2244598376
 H        -6.3906501317       -1.0419319767       -5.8557732596
 H        -4.7480927430        0.3466413690       -4.4683901463
 H        -3.0715791678        0.0361955284       -4.7564141382
 H        -3.9697108795       -1.2792715380       -4.0471545526
 H         1.5177812336       -1.8873801662       -6.1926505633
 H         2.7404847046       -2.9556036146       -7.0304683625
 H         2.1674292990       -3.3237904286       -5.4734690398
 H         1.4815310478       -3.9901272593       -9.1179230299
 H         0.0045714642       -3.0407710406       -8.7655080087
 H        -0.0563593183       -4.8070753543       -8.6237496790
 H         5.5595069490       -5.7066598133       -1.9630315708
 H         3.9250841304       -5.7533165523       -2.7335629655
 H         5.0640246239       -4.5534477642       -3.1491164035
 H         7.1985159835       -6.4833725510       -5.2152206484
 H         6.7888110429       -5.0205320660       -4.4427843468
 H         5.8103480526       -5.3569224203       -5.7276922460
 H         8.0239398819      -12.0803636361       -2.1049650841
 H         7.3365238102      -12.5893813989       -0.5131610173
 H         8.9220036417      -12.6213626014       -0.9421126708
 H         8.9083092151       -9.8374628303        1.6877247889
 H        10.0429739499      -10.8284550426        0.7893499792
 H         8.5258602499      -11.5095982817        1.4173372036
 H        14.8043432866       -6.9191373867       -3.1951232390
 H        14.1903553419       -8.4466634400       -2.4104075945
 H        13.6897664325       -6.8245527783       -1.7595593642
 H        12.2582686325       -5.2952468318       -3.4957105673
 H        11.5682939518       -6.0460471372       -4.9423401060
 H        13.3235410133       -5.6414051650       -4.9196226138
 H        10.0491786501       -9.0160113273      -10.5129475069
 H        11.0505441589      -10.1297194102       -9.7160341462
 H        11.5727246278       -8.5129970170       -9.8788996246
 H         9.7723565775       -6.6738309433       -8.3706624663
 H         8.5632901041       -7.6949533918       -7.5714622767
 H         8.5389021046       -7.6134000907       -9.3224126708
 Na        8.9146620297       -8.8714813999       -4.5882976170
 Na      -11.2842299612        5.2538410572      -14.2921362575
