232

 C         8.7079914526      -11.0411636657       -8.9977935153
 C         9.1255527460      -10.0490567649       -7.8275487167
 O         8.4952526995       -9.9771904123       -6.8021207123
 C        10.1298547935       -8.8657891470       -8.4025768141
 C        11.1186359893       -8.5628782913       -7.2377584845
 O        10.6122612854       -7.9599082295       -6.2939762658
 C        12.5187419042       -9.2135955254       -7.1487068599
 C        13.3833327348       -8.4615851634       -6.1399008853
 C        12.7949242581       -8.6730078219       -4.6260875136
 O        12.2714607832       -9.7319340985       -4.2976445602
 C        12.6930472962       -7.4073286611       -3.6397718006
 C        11.2798470726       -7.7114542830       -2.9051954107
 O        10.2355142424       -7.1988703013       -3.3205796517
 C        11.2390295051       -8.5809235514       -1.6899033168
 C         9.7784074247       -8.5801242787       -1.1947707891
 C         9.0017686737       -9.8179249088       -1.6771094216
 O         8.8344036657      -10.2159069734       -2.8207919822
 C         8.2341978770      -10.5868336953       -0.4648893460
 C         6.8984724955       -9.8425216661       -0.3923524646
 O         6.3292249943       -9.3898131022        0.5879267677
 C         5.9753969933       -9.8866306399       -1.6891320138
 C         5.3749874858       -8.4272517442       -2.0856140234
 C         6.0080815293       -7.9364927121       -3.3892573791
 O         6.8501868458       -8.5622210759       -3.9490029456
 C         5.4110400442       -6.6406628155       -3.9596627465
 C         4.0681087553       -7.0997408139       -4.7734576450
 O         4.0775350407       -8.2587785325       -5.1639696449
 C         2.9388130277       -6.1440522975       -4.9810293050
 C         2.5409737789       -5.8344032936       -6.4169477003
 C         1.0742398192       -5.3300854324       -6.3649517910
 O         0.2250663884       -6.0084052400       -5.8391895464
 C         0.6577831786       -3.9744360629       -6.9373531244
 C        -0.6268646138       -3.5859300555       -6.1895370159
 O        -0.6851138131       -3.0831409698       -5.1375979015
 C        -1.8956935661       -4.1530331194       -6.8945565872
 C        -3.1679079443       -3.4019661248       -6.4469911003
 C        -3.0257077421       -1.9320541015       -6.6700043378
 O        -2.1441467219       -1.4191275825       -7.3215712218
 C        -4.2134174310       -1.0515735151       -6.2589987201
 C        -4.4562126626        0.1767956283       -7.2481181171
 O        -4.4602983251        1.3116259349       -6.7506339251
 C        -4.8148835463       -0.2469795331       -8.6634048293
 C        -5.7047676476        0.7508558607       -9.3062735869
 C        -7.1439298375        0.9875495923       -8.7935889219
 O        -7.8097043731       -0.0118034729       -8.7263017775
 C        -7.6359910510        2.4437194147       -8.4976263516
 C        -7.4003440475        3.3347945920       -9.8753998050
 O        -6.4976018694        3.1780226456      -10.6109648580
 C        -8.4086498944        4.6162988200      -10.1372935556
 C        -7.7622533846        5.6689994790      -11.0151117671
 C        -8.5588056473        5.7882905357      -12.2686051446
 O        -9.6674721624        5.2101260466      -12.3636231521
 C        -7.9058598208        6.3233601588      -13.5285145637
 C        -8.3787228322        5.3956755577      -14.6988390982
 O        -9.3739373554        5.7427191167      -15.3010003909
 C        -7.5369325116        4.2377539926      -15.1702261794
 C        -8.3814731246        3.2121762053      -16.0031300190
 C        -8.9859379974        2.0833437831      -15.0228257692
 O        -8.4539519455        1.8161548068      -13.9913850806
 C       -10.3266882904        1.3230616093      -15.4740369247
 C       -11.3421969395        2.0304809268      -14.6778913969
 O       -11.8444945264        3.1052465785      -15.0509018395
 C       -11.7353780964        1.4757684286      -13.2686752132
 C       -12.5137031222        2.4515553395      -12.3307958363
 C       -13.9787923368        2.6118908428      -12.7869990715
 O       -14.5436926610        1.9979289431      -13.6212455782
 C       -14.7887849501        3.7786551986      -12.0872056771
 C       -13.9879028021        5.0144774636      -12.7545092562
 O       -12.8444164695        5.3440604672      -12.5176449707
 C       -14.6715166011        5.7518921923      -13.9040807557
 C       -14.5249924853        5.0031788955      -15.1984629974
 C       -13.7964060226        5.8615320589      -16.3841852666
 O       -12.6579798969        6.2391797631      -16.2100480271
 C       -14.5659478237        6.0944717842      -17.7910712027
 C       -14.4823783753        4.7846736755      -18.5516183150
 O       -13.4931124287        4.0051809621      -18.3438745059
 C       -15.7345208848        4.5689919642      -19.5088949547
 C       -15.7539154885        3.3657125587      -20.4466403542
 C       -15.5156813294        3.8733374453      -21.9250118037
 O       -14.3399879491        4.0385403704      -22.2369635103
 C       -16.6859272493        3.9314510058      -22.9093708472
 C       -17.2562416350        2.3987059718      -22.9860572773
 O       -18.3119308036        2.0745587062      -22.5614488504
 C       -16.2381588922        1.4888442769      -23.7799061292
 C       -17.8805250832        4.7787745117      -22.2418005378
 C       -16.2763645626        4.5561014297      -24.2320378103
 C       -16.0445811910        6.4953986881      -17.3596726091
 C       -13.9831530950        7.3149069897      -18.6949390876
 C       -16.3258626683        3.8236090190      -12.3277516309
 C       -14.3713276319        3.7728834827      -10.5737310464
 C       -10.7095883892        1.4246585362      -16.9494550763
 C       -10.1019565847       -0.2303198043      -15.1614818394
 C        -8.3912275682        7.7136402882      -13.7984627565
 C        -6.2870238545        6.3134609159      -13.5737098551
 C        -9.1110052784        2.3539231714       -8.1389952137
 C        -6.8595874863        3.1199585789       -7.2690120049
 C        -5.5771826471       -1.7828768568       -6.2180011949
 C        -3.8740651254       -0.4055882589       -4.9404064241
 C         1.6792758041       -2.8437719800       -6.4824921022
 C         0.5424074394       -3.9491263772       -8.4824672259
 C         5.0033032145       -5.6921121120       -2.7487642523
 C         6.3556706162       -5.9200408511       -5.0333437812
 C         7.8251244630      -12.0140853994       -0.8834709402
 C         9.0394809649      -10.5032939458        0.8684097158
 C        13.9560927903       -7.2848694570       -2.7782943252
 C        12.5248080440       -6.0363283399       -4.3263016730
 C        10.9702412562       -9.1234910220       -9.7526310446
 C         9.1145536832       -7.6141350398       -8.5745468850
 H         8.5946234835      -10.5620186174       -9.9589345867
 H         7.8142124145      -11.6173124941       -8.8736982980
 H         9.6146432681      -11.6642500896       -9.2082304497
 H        12.9229471338       -9.2854129208       -8.1251693332
 H        12.3663040020      -10.2434546842       -6.8930197017
 H        13.3985690496       -7.4092480259       -6.2449249538
 H        14.3735449663       -8.7760572832       -6.3908357572
 H        11.9239241163       -8.0635843170       -0.9712769225
 H        11.7364656765       -9.5136294120       -1.8043623282
 H         9.4470074169       -7.5953662817       -1.4765382918
 H         9.8624421661       -8.6275730087       -0.1089233106
 H         5.1642002219      -10.5096111438       -1.3033936592
 H         6.3836390035      -10.4590716553       -2.5341763170
 H         5.6124037595       -7.7165562543       -1.2614507676
 H         4.3084334208       -8.3974424032       -2.2398173452
 H         2.9820770092       -5.2334363362       -4.3576321634
 H         2.1412646399       -6.6510765351       -4.5478482593
 H         2.6875518419       -6.7464630747       -7.0289977874
 H         3.1412808708       -5.0808282417       -6.8893742101
 H        -1.8983004578       -5.2217546205       -6.5784151276
 H        -1.9802602392       -4.1808173845       -8.0481161695
 H        -3.2879262169       -3.7108792648       -5.3895375072
 H        -4.0659272308       -3.6949139281       -7.0093940585
 H        -5.2527138914       -1.1911027491       -8.5132066187
 H        -4.0026308117       -0.5422328902       -9.2803821036
 H        -5.9065498318        0.5118513367      -10.3718671627
 H        -5.1236241252        1.6124455963       -9.4856374127
 H        -8.6398305357        4.9287071036       -9.1309434410
 H        -9.2808105704        4.1172160295      -10.6184647229
 H        -6.7101848239        5.3656981299      -11.3655097584
 H        -7.6597779768        6.6638310424      -10.5268224382
 H        -7.0978566402        3.6715588071      -14.2895952233
 H        -6.7472627509        4.7194070104      -15.7336074336
 H        -7.7897924592        2.8209767836      -16.8121872370
 H        -9.2342406974        3.8537070097      -16.4756494238
 H       -10.8236071206        1.1043876252      -12.8527258188
 H       -12.2899664026        0.5299623049      -13.3811071962
 H       -12.0838234498        3.4602316669      -12.1762849268
 H       -12.5707409311        1.9004338139      -11.3015400409
 H       -14.1391302122        6.6928673800      -14.0580879846
 H       -15.6841589009        6.0513617557      -13.5331607794
 H       -15.5552301128        4.8667292021      -15.5504651998
 H       -14.0790765868        4.0257628883      -15.0726088686
 H       -15.6371834742        5.5559839678      -19.9968665941
 H       -16.6151881484        4.5474213172      -18.8475091395
 H       -16.6682615449        2.7853544008      -20.3545557509
 H       -14.9281754005        2.7223475675      -20.0753319986
 H       -15.2752583188        1.8402114126      -23.6315303716
 H       -16.4562655983        1.6369984605      -24.8250956935
 H       -16.3712201635        0.4276759668      -23.5331457398
 H       -17.4524130397        5.6729136240      -21.9535287520
 H       -18.1119480621        4.1027644884      -21.4547850083
 H       -18.6939427055        4.9785335542      -22.9134475496
 H       -16.9400212631        4.5428810303      -25.1671226237
 H       -15.4306375692        4.0477309945      -24.6486349510
 H       -15.9021102154        5.6702656701      -24.1685755532
 H       -16.7383799741        5.6667159061      -17.0781733726
 H       -16.5105630801        7.1529379553      -18.0732491443
 H       -16.0387956252        7.0462867533      -16.3951892884
 H       -14.1950403702        7.1118542746      -19.7769866824
 H       -12.8846094528        7.3341293091      -18.6991128033
 H       -14.3546102320        8.2987558695      -18.3731484253
 H       -16.5187998079        3.2470372596      -13.2404089648
 H       -16.7548744333        4.7998979252      -12.5844106273
 H       -16.9994936263        3.3015996413      -11.6176671477
 H       -14.9726259832        4.5666743741      -10.0126413675
 H       -13.2893211340        3.9629501760      -10.4832372917
 H       -14.7523569828        2.8743676962      -10.1969821897
 H       -11.4268079274        0.7193548607      -17.4900920309
 H        -9.8154158422        1.0892242968      -17.5258841959
 H       -10.9391751232        2.4071215084      -17.2486821349
 H        -9.2863245056       -0.6068351468      -15.8081603348
 H       -11.0903125927       -0.6889154438      -15.4205984959
 H        -9.9421713498       -0.4382046034      -14.1225415731
 H        -9.4022171648        7.8991725820      -13.4339154241
 H        -8.3565155143        7.9752137396      -14.7804511777
 H        -7.7692935232        8.4077722317      -13.2648518594
 H        -5.9673141276        6.8149287337      -12.6523972701
 H        -5.8798793974        6.8938311208      -14.3298211442
 H        -5.9240465906        5.3379436479      -13.4907040892
 H        -9.6133760419        3.1090135321       -8.6436132960
 H        -9.1846335494        2.2975833720       -7.0859809166
 H        -9.4952549046        1.3865896125       -8.4610418657
 H        -7.2804590878        4.1600199213       -7.1511627662
 H        -5.8761505615        3.2813630433       -7.4788970083
 H        -6.9055429285        2.5871736616       -6.3197839718
 H        -5.6786800593       -2.3606856183       -5.3611473612
 H        -5.6062393987       -2.5474700824       -7.0160428559
 H        -6.3877123209       -1.0597399749       -6.3375692716
 H        -4.7056242409        0.3659838223       -4.6637348750
 H        -2.8833258513        0.0893424363       -4.9273538242
 H        -3.8669916162       -1.1536974021       -4.1712574579
 H         1.1738346595       -1.9280429480       -6.1886715829
 H         2.4680199102       -2.7009681726       -7.2212214877
 H         2.1140434624       -3.2680410873       -5.5715647527
 H         1.5619709046       -4.0791556082       -8.7702454583
 H         0.2298276560       -3.0317446603       -8.8967959763
 H        -0.0422506263       -4.7921657526       -8.7761033514
 H         5.7768904382       -5.4957239628       -2.0238805032
 H         4.0048184835       -5.9411621816       -2.2807118097
 H         4.8326966357       -4.7285800817       -3.1779785757
 H         6.8160280940       -6.7840854410       -5.5356803855
 H         7.1125217456       -5.3370743441       -4.5582734846
 H         5.7106651744       -5.2334794604       -5.5304197177
 H         7.5825465274      -12.1517836314       -1.8677297445
 H         7.2263765996      -12.5688101049       -0.1746624075
 H         8.7589179685      -12.6797129102       -0.9676558203
 H         9.0897236697       -9.6027526417        1.4902072244
 H        10.0733666419      -10.6839210236        0.5339851432
 H         8.8072243008      -11.2494956380        1.6776144582
 H        14.6391439114       -6.9898941540       -3.5619295140
 H        14.3414151955       -8.2629740244       -2.2775102790
 H        13.8712043175       -6.5192151489       -2.0164089852
 H        12.1154034948       -5.3640216577       -3.5682121953
 H        11.7277130192       -6.2063247837       -5.1013139237
 H        13.4193388872       -5.6232613213       -4.7728028339
 H        10.3413373760       -8.9649086790      -10.6193155541
 H        11.3247075578      -10.0922263460       -9.8931950056
 H        11.8608869798       -8.5011439089       -9.8787181933
 H         9.7129764174       -6.6736633559       -8.7616784668
 H         8.6846346772       -7.5453495074       -7.5452773519
 H         8.2920389034       -7.7227164882       -9.2596303358
 Na        8.9499002645       -8.6227710391       -4.4869145357
 Na      -11.3151073328        5.2064760001      -14.4243986682
