232

 C         8.7707500393      -11.0436614384       -8.8843270539
 C         9.2133447829       -9.9645132763       -7.9167002772
 O         8.8055018299       -9.8844355332       -6.7543098646
 C        10.2086275498       -8.7293784852       -8.4769857076
 C        11.0958070885       -8.5002732470       -7.1913271880
 O        10.7213757804       -7.8635097860       -6.2079926477
 C        12.5194397327       -9.1883320951       -7.1548613455
 C        13.3821471918       -8.3960940754       -6.1218603932
 C        12.7694055459       -8.6165842115       -4.7298135488
 O        12.5667589088       -9.7279208363       -4.3368288179
 C        12.5761876469       -7.2831652005       -3.7501449612
 C        11.2655491384       -7.5436527020       -3.0434057450
 O        10.2696258267       -6.9504864384       -3.4366456783
 C        11.1298236913       -8.5530804260       -1.8790441584
 C         9.6886388535       -8.6714496692       -1.3709852916
 C         8.9719082463       -9.9952143696       -1.6865798768
 O         8.9443017828      -10.4090310839       -2.8423137316
 C         8.1676082517      -10.8122727405       -0.4630203853
 C         6.8445182602       -9.9106972815       -0.4357317507
 O         6.5565481966       -9.3254902959        0.5820109429
 C         5.9161492076       -9.8643899462       -1.6293381711
 C         5.3239023071       -8.5715227087       -1.9963708668
 C         5.9208008633       -7.8842840429       -3.2368551825
 O         7.0160797695       -8.3305492335       -3.6494160792
 C         5.2631684651       -6.6294339521       -3.8614659496
 C         4.0322019386       -7.1933575390       -4.7277472723
 O         4.1168578385       -8.2240991968       -5.3329969945
 C         2.8142238729       -6.2018864897       -4.8699247458
 C         2.6520003971       -5.7768183792       -6.3372377177
 C         1.1188732731       -5.2515018640       -6.3216168914
 O         0.2674103722       -6.0212229329       -5.9176823716
 C         0.7334579151       -3.8475476108       -6.8642409902
 C        -0.7112459987       -3.5322274947       -6.2974035492
 O        -0.7890275157       -2.9455658254       -5.2046895247
 C        -1.9776517807       -4.1876730730       -6.8233367900
 C        -3.2017827906       -3.4253899624       -6.4185010126
 C        -3.1315209326       -1.9133656205       -6.6714341817
 O        -2.1534510137       -1.5475316087       -7.2814544474
 C        -4.2569969452       -1.0268866547       -6.1525920279
 C        -4.4602592132        0.1138995400       -7.2108052314
 O        -4.4870539655        1.2770177310       -6.9299221354
 C        -4.9113955334       -0.3247639789       -8.6710947375
 C        -5.5556046769        0.8843016628       -9.3677027035
 C        -6.9426089179        0.9948402971       -8.8525177214
 O        -7.6061215205       -0.0379334062       -8.7427461313
 C        -7.6555172295        2.3439950283       -8.5000690286
 C        -7.5493721087        3.2718436655       -9.7093275971
 O        -6.5418317476        3.1719151313      -10.3999621749
 C        -8.5549525442        4.4672622915       -9.9530599189
 C        -8.0217766748        5.4411132178      -10.9979910941
 C        -8.6499955591        5.4734943783      -12.4039144261
 O        -9.7703007993        5.1427295243      -12.5595421150
 C        -7.7417830617        6.1722436584      -13.6287253443
 C        -8.2904745866        5.4803002773      -14.9323619710
 O        -9.2845159498        5.8089135526      -15.5547774048
 C        -7.5588496476        4.1300363308      -15.2785072737
 C        -8.5074439443        3.1986142156      -16.0269018970
 C        -8.9897110733        2.0939897185      -15.1097082060
 O        -8.4876525603        1.6775599803      -14.0652705798
 C       -10.3825123163        1.2911923405      -15.6147798127
 C       -11.4459017186        2.0508522248      -14.7992415755
 O       -11.8205453628        3.1046138034      -15.2755353917
 C       -11.7490344421        1.5638133218      -13.4120168864
 C       -12.4288105341        2.4719343910      -12.4463705456
 C       -13.9344918527        2.8706554931      -12.7691639819
 O       -14.5460926931        2.1739060298      -13.5582853681
 C       -14.7913158145        4.0377822786      -12.0253647041
 C       -14.0949615608        5.1991945451      -12.7435181257
 O       -12.8815375491        5.4517034596      -12.5488539369
 C       -14.7394414742        5.8937414316      -13.9093796549
 C       -14.5435741456        4.9323969116      -15.1820415760
 C       -13.8159501902        5.7407806648      -16.2959877600
 O       -12.6984749420        6.2022218011      -16.1303020529
 C       -14.5494762694        6.1000665690      -17.6374552473
 C       -14.7042624988        4.6651378351      -18.4998034261
 O       -13.8098415105        3.9241568995      -18.4681926792
 C       -16.0397752637        4.4864640889      -19.2393653378
 C       -15.9262541875        3.3277536595      -20.2612154446
 C       -15.5499856170        3.8555575688      -21.7630081438
 O       -14.4070663971        3.9548158445      -22.0926536191
 C       -16.6738516413        3.9221591830      -22.7697844981
 C       -17.1727084736        2.3903045688      -23.0637351489
 O       -18.3405174745        2.1094545554      -22.9234179379
 C       -16.1461298333        1.4367031770      -23.6879305209
 C       -17.9141383448        4.8080960399      -22.3113258750
 C       -16.1648899536        4.5065316376      -24.1124536830
 C       -16.0188901075        6.6529772800      -17.2728791845
 C       -13.5863164125        7.1882509394      -18.4286442145
 C       -16.3190860834        3.7549699115      -12.1818940116
 C       -14.4412402667        4.3093011084      -10.4847678697
 C       -10.5005795909        1.4843699167      -17.1081016512
 C       -10.2331317240       -0.1544587430      -15.1911491652
 C        -8.2702950264        7.6302410238      -13.5932947210
 C        -6.2318917003        6.1832278713      -13.4352272019
 C        -9.1971827794        2.0406531830       -8.0834130936
 C        -6.8349752252        3.1077965321       -7.4476734511
 C        -5.5325795022       -1.7968681573       -5.8016901174
 C        -3.6727921821       -0.4971361101       -4.7775492312
 C         1.7028337577       -2.7019563858       -6.4915390919
 C         0.7104918166       -4.0335410954       -8.4106432026
 C         4.9732637128       -5.5754149783       -2.8097743185
 C         6.2068784420       -6.0407735012       -4.9334877804
 C         7.7855171008      -12.3321046790       -0.7041763313
 C         8.9054737832      -10.6124662212        0.9208036700
 C        13.8495049918       -7.4772158820       -2.7620060565
 C        12.4727771165       -5.9869719578       -4.5986859821
 C        11.0209903084       -9.2805835976       -9.6667233225
 C         9.3521835963       -7.5082173425       -8.8211346009
 H         8.3024252321      -10.5222608758       -9.6969512849
 H         7.9329405059      -11.5534892830       -8.4129893912
 H         9.4727287697      -11.7016295324       -9.3228205193
 H        12.9031244797       -9.2084728006       -8.2093880576
 H        12.3802876929      -10.2955153479       -6.9414808984
 H        13.5265220664       -7.2955347155       -6.4446217446
 H        14.4457233554       -8.8204884133       -6.1712596568
 H        11.7512539555       -8.3695004012       -1.0188243170
 H        11.6021459422       -9.4939085535       -2.2835045306
 H         9.1936404822       -7.8323739009       -1.9922535827
 H         9.7560655607       -8.3667174118       -0.3185997863
 H         5.0519601803      -10.5484980306       -1.4515425115
 H         6.4351046376      -10.3447149050       -2.4553327894
 H         5.4446471783       -7.8932305425       -1.1541265354
 H         4.2144829946       -8.6568906879       -2.1729463222
 H         2.9183713437       -5.2972547932       -4.2964951744
 H         1.8323267438       -6.6836226752       -4.4762705388
 H         2.6104615557       -6.6172522448       -7.0027193152
 H         3.4605406191       -5.1458462092       -6.7293474007
 H        -1.9361231058       -5.2423358369       -6.4387695794
 H        -2.0474989422       -4.3075555062       -7.8779574298
 H        -3.1815569506       -3.6791269015       -5.3912666887
 H        -4.1068917001       -3.8195253353       -6.8809689488
 H        -5.4010793625       -1.3234301763       -8.8482617324
 H        -3.9251840532       -0.6419515711       -9.1900506568
 H        -5.5049232416        0.8169250664      -10.4497325580
 H        -4.9700333472        1.8505021156       -9.2329753208
 H        -8.4440841667        4.9171923642       -8.9667576396
 H        -9.4830287062        3.9875262524      -10.1972632792
 H        -6.9518680468        5.3585399482      -11.0296723684
 H        -8.2231548149        6.4733824213      -10.6456714027
 H        -7.2849153625        3.6357215227      -14.3479484946
 H        -6.6084530864        4.4107764496      -15.8317592233
 H        -8.0412943927        2.7392662662      -16.9510428010
 H        -9.3205050888        3.8109662968      -16.3166141001
 H       -10.8125798815        1.0729904641      -13.0933382835
 H       -12.3902607038        0.6926527035      -13.5625760190
 H       -11.8410695679        3.4023744073      -12.3300179969
 H       -12.4781027050        1.9792240730      -11.5430375171
 H       -14.2266633155        6.8533742200      -14.0988748963
 H       -15.7646025507        6.1882775395      -13.7077394574
 H       -15.4970693942        4.4546962896      -15.4746796819
 H       -13.7771419727        4.1227156942      -14.9637613786
 H       -16.1454630134        5.4149072676      -19.7487151267
 H       -16.7994606167        4.2708447256      -18.4990672610
 H       -16.8365426304        2.7138469398      -20.1929331855
 H       -15.0809146190        2.7375320430      -19.9986274490
 H       -15.1720777241        1.4321529718      -23.0267115746
 H       -15.9361222989        1.9283433103      -24.6449002244
 H       -16.6111160439        0.4641855150      -23.9105958087
 H       -17.4449006390        5.8356007965      -22.3266549286
 H       -18.3021092064        4.4117040479      -21.3854219350
 H       -18.6859220525        4.7071944569      -23.0763223966
 H       -16.6557236624        4.2319410148      -24.9840056011
 H       -15.1208379677        4.2219379702      -24.3685019113
 H       -16.1389046112        5.5206439531      -24.1174728818
 H       -16.4921869060        5.9182214242      -16.6604604096
 H       -16.6936093204        7.0012406282      -18.0793184356
 H       -16.0021000861        7.5540934208      -16.6650421452
 H       -13.0102734035        6.8071745194      -19.2457051349
 H       -12.8164878103        7.4722394942      -17.7287215447
 H       -14.1286737492        8.1012786608      -18.6589642330
 H       -16.6615359959        2.8090432603      -12.5530384016
 H       -16.9172667301        4.4592921233      -12.7194021795
 H       -16.7222565984        3.7119025041      -11.2185929680
 H       -15.0092281971        5.1306241773      -10.1635646405
 H       -13.3622873728        4.5138572091      -10.4388691829
 H       -14.8759140094        3.4732316042       -9.8674567326
 H       -11.2833837838        0.9294079823      -17.4511716953
 H        -9.7355168790        1.1047600201      -17.7734776856
 H       -10.8062832111        2.5337068300      -17.3480909852
 H        -9.4894051206       -0.5150739012      -15.8900665476
 H       -11.0967839747       -0.7872165388      -15.2564485688
 H        -9.8973899104       -0.1620810188      -14.1258838411
 H        -9.1845698874        7.6186945413      -13.0314376615
 H        -8.5361440832        8.0585725145      -14.6455104490
 H        -7.6794344471        8.3832871179      -13.0488508078
 H        -5.9159259739        6.9571508046      -12.7520723706
 H        -5.7750337522        6.3844582202      -14.4567489191
 H        -5.8218757968        5.1993017678      -12.9818976707
 H        -9.8254982757        3.0002199018       -8.2884941523
 H        -9.1355313978        1.7434414258       -7.0443111868
 H        -9.6871155662        1.2829823388       -8.6804712980
 H        -7.0921018307        4.1458495495       -7.3202105932
 H        -5.6966018092        3.0048238964       -7.5708363039
 H        -6.9273518470        2.5575957797       -6.4735977966
 H        -5.3729754808       -2.1574724081       -4.7338962642
 H        -5.7690032808       -2.6556707727       -6.4155076263
 H        -6.4096697696       -1.1751502168       -5.8234279995
 H        -4.4273330475       -0.0281004814       -4.2081761833
 H        -2.8114227326        0.0633917816       -4.8331051945
 H        -3.4033114176       -1.4163154825       -4.1978658692
 H         1.2208084916       -1.7395937868       -6.8458818292
 H         2.6378552832       -2.7945525032       -7.0575353114
 H         1.8890656975       -2.7177981686       -5.4084835821
 H         1.7049145154       -4.2216052643       -8.8449935174
 H         0.3033307451       -3.1186143758       -8.8701112256
 H         0.0632311921       -4.8789480037       -8.5449514619
 H         5.9096771160       -5.0728080263       -2.5531236953
 H         4.6519046208       -6.0778907841       -1.9411164243
 H         4.2805091653       -4.7376430748       -3.0552708131
 H         6.1399160743       -6.6166850340       -5.8418920645
 H         7.2442098063       -6.1514333535       -4.5226334033
 H         5.9168084219       -4.9602221494       -4.8698081197
 H         7.2695757493      -12.5668657387       -1.6825128936
 H         7.2666976518      -12.7771415628        0.1437227311
 H         8.5925217438      -12.9686269732       -0.8494559993
 H         8.7713468713       -9.6990494472        1.4611801727
 H         9.9589210680      -10.7572996544        0.8314505045
 H         8.5094789157      -11.2807213705        1.6166778118
 H        14.7519692215       -7.7717623238       -3.3274859095
 H        13.5930858439       -8.1759792091       -2.0524519938
 H        13.9207105001       -6.5968029059       -2.1329026003
 H        12.3226061948       -5.1009514511       -3.9823209230
 H        11.7173788481       -6.0922095478       -5.3245834464
 H        13.4445987061       -5.9052716645       -5.1142138254
 H        10.3960566842       -9.6810372614      -10.4771294964
 H        11.7302600679      -10.1318914784       -9.4363688066
 H        11.6933651365       -8.5552134380      -10.1188315759
 H         9.8239550083       -6.9260455042       -9.5825471279
 H         8.9182300508       -6.9365984380       -8.0110610549
 H         8.5045193729       -8.0017747719       -9.3407377548
 Na        9.0954530778       -8.4710119298       -4.8629376366
 Na      -11.4400022564        5.3899187598      -14.3947133545
