232

 C         8.7141507203      -11.0205656599       -8.8018643171
 C         9.2645962852       -9.9413654060       -7.8784769399
 O         8.9195743192       -9.8438292337       -6.7213686651
 C        10.3136286357       -8.8916735269       -8.5250341865
 C        11.2725441597       -8.4927909773       -7.2615889938
 O        10.8748235130       -7.6656796823       -6.4622078113
 C        12.7953822883       -8.9605630674       -7.2908281127
 C        13.5696239729       -8.4759459474       -6.1327023975
 C        12.8109041428       -8.5802120772       -4.7907338549
 O        12.7432556982       -9.6915099475       -4.3242668222
 C        12.5018207602       -7.2750483639       -3.7713094180
 C        11.1287011944       -7.4503228464       -3.2036668244
 O        10.2577509311       -6.6412636800       -3.5534091463
 C        10.9583064379       -8.6444175845       -2.2428999538
 C         9.5946068238       -8.7301250210       -1.3664777768
 C         8.8958481308      -10.0784377984       -1.6522491868
 O         9.0472975171      -10.6064711427       -2.7318338754
 C         8.0529593487      -10.8156632280       -0.5049039788
 C         6.8008157581       -9.9237153375       -0.5060441593
 O         6.7385024510       -9.0855034956        0.3439641235
 C         5.7938069224      -10.0681527526       -1.6422774570
 C         5.2193585486       -8.6760889548       -2.0275909681
 C         6.0668676360       -7.9119880670       -3.0637333092
 O         7.1919051804       -8.2101045858       -3.2992683714
 C         5.3476239211       -6.6214948976       -3.7774520609
 C         4.0354990076       -7.1418110172       -4.6102304544
 O         4.2145690398       -8.1098118480       -5.3478221373
 C         2.7232782665       -6.3495551231       -4.6367514025
 C         2.5266469982       -5.6540389105       -5.9744136949
 C         1.0844747865       -5.3117716001       -6.3039518984
 O         0.1432110776       -6.0650026978       -6.1089211941
 C         0.7299893424       -3.8252902619       -6.8698487810
 C        -0.6121740181       -3.5426810902       -6.2618545777
 O        -0.7342568291       -2.7625274570       -5.2964348091
 C        -1.8566233077       -4.2413411373       -6.8985579814
 C        -3.2208835447       -3.5850725881       -6.3472686664
 C        -3.2979229493       -2.1568120129       -6.7009618517
 O        -2.4258509362       -1.6788498122       -7.4346382283
 C        -4.2569372639       -1.0144091556       -5.9640924403
 C        -4.5245721021        0.0566234507       -7.0597607034
 O        -4.3790092471        1.2196987522       -6.6873759574
 C        -4.7027288882       -0.2801468348       -8.5281371147
 C        -5.4526050925        0.8058506029       -9.2742809490
 C        -6.9727622410        0.8970942218       -8.9408961705
 O        -7.5838254144       -0.1109385762       -8.6990003245
 C        -7.6674600588        2.2866300973       -8.6171803254
 C        -7.5528759762        3.3268724592       -9.7764533391
 O        -6.6408455268        3.3413733969      -10.5885400035
 C        -8.7234824948        4.2752674037      -10.0146071901
 C        -8.1853272727        5.3568407291      -10.9751629504
 C        -8.6947519934        5.4065330918      -12.4007150299
 O        -9.7825675040        4.8161956956      -12.6427158773
 C        -7.8916533356        6.0575338635      -13.5554609353
 C        -8.2936750021        5.3778648040      -14.8713625782
 O        -9.1747543879        5.9123018520      -15.5470209361
 C        -7.5472730184        4.1229510453      -15.4202754816
 C        -8.4368878703        3.1237859952      -16.2204714010
 C        -8.9816372432        1.9564817179      -15.2570125311
 O        -8.5016113269        1.7468238173      -14.1794026682
 C       -10.4388623796        1.3221594700      -15.6892566344
 C       -11.4027155478        2.1410391201      -14.8007882292
 O       -11.7701932817        3.2677684699      -15.1340500434
 C       -11.9439282593        1.5317229268      -13.4178761148
 C       -12.3993081362        2.6124880085      -12.4095266464
 C       -13.9027097254        2.8429027621      -12.6740937242
 O       -14.5830863131        2.1903927707      -13.4338015337
 C       -14.5924945276        4.1870648860      -11.9143397291
 C       -14.1215082489        5.3962295894      -12.8595597965
 O       -13.0917880037        5.9563069130      -12.5650553537
 C       -14.9102408799        5.8280988072      -14.0707818170
 C       -14.7351521409        4.8782768444      -15.2788365577
 C       -13.7635353146        5.6758209160      -16.3181468169
 O       -12.6656949301        6.0819645142      -16.0249511755
 C       -14.6111560571        6.1996882620      -17.6316926245
 C       -14.9312560465        4.6845621368      -18.3755857170
 O       -14.0166529457        3.8793192353      -18.4906248519
 C       -16.2862572405        4.5266754812      -19.1630508869
 C       -16.1807228591        3.3484017223      -20.1902284874
 C       -15.6095524648        3.7288034248      -21.5416564117
 O       -14.4246388033        3.9812929558      -21.7861616680
 C       -16.6648911416        3.8801895517      -22.7961887216
 C       -17.1354106986        2.4500457009      -23.2083678547
 O       -18.3374756735        2.1744064395      -23.1329700524
 C       -16.0755856738        1.3823870860      -23.5804116627
 C       -17.8852860577        4.6366317792      -22.2630367026
 C       -15.9590260585        4.5363866840      -23.9954054455
 C       -15.8304858709        7.0831942979      -17.2426865515
 C       -13.6710322641        6.8714670321      -18.5668911192
 C       -16.1269100775        3.9899943428      -12.0652644111
 C       -14.1754659370        4.3089324660      -10.4660104829
 C       -10.6558775188        1.3878183876      -17.2200602937
 C       -10.3753846870       -0.1785453282      -15.3605383822
 C        -8.3362922628        7.6032515428      -13.5526227862
 C        -6.3524121281        5.8410569090      -13.2548114431
 C        -9.1047041299        2.0184453901       -8.0986361297
 C        -6.9591550948        2.9023622021       -7.3696750465
 C        -5.6643536135       -1.6240797125       -5.5673279223
 C        -3.4570678083       -0.3039208557       -4.8618135700
 C         1.7381220264       -2.7576665272       -6.4596701885
 C         0.6892409338       -3.9372776120       -8.4806019411
 C         4.9794095231       -5.5859680657       -2.7784201804
 C         6.3547752524       -5.9915013255       -4.8972981376
 C         8.0629204093      -12.2614860327       -1.0565126929
 C         8.8782080796      -10.8449654735        0.8341960998
 C        13.6939009726       -7.3383178049       -2.7398294813
 C        12.7968570013       -5.8716142099       -4.5016078291
 C        10.8979144565       -9.4696737947       -9.7175738668
 C         9.5773692108       -7.5276046184       -8.9050406239
 H         8.2326270241      -10.6640166216       -9.7606137918
 H         8.0170878844      -11.6810076768       -8.2651457340
 H         9.5923166843      -11.6379467929       -9.1527954950
 H        13.1520729853       -8.6288506080       -8.2467062635
 H        12.7719855529      -10.0128789246       -7.4078802259
 H        13.8056817998       -7.4784650526       -6.3901752236
 H        14.4389518352       -9.0399490756       -6.0162104551
 H        11.8661431568       -8.7621230262       -1.5965793611
 H        11.0239190572       -9.5533706782       -2.8318670296
 H         8.9223581859       -7.9930725278       -1.6326685795
 H         9.9175471993       -8.5868858818       -0.3566923542
 H         4.9597369663      -10.6128352381       -1.2567882545
 H         6.1263760549      -10.6963711885       -2.4960602116
 H         5.0905358275       -8.0095856030       -1.1345370781
 H         4.2420891494       -8.7143639056       -2.4856801835
 H         2.6571247853       -5.6189854490       -3.7777321763
 H         1.9099171793       -7.0059445631       -4.5749894205
 H         2.9063307427       -6.2946594379       -6.8250444057
 H         3.0734807913       -4.7155964235       -6.1248788709
 H        -1.7933027816       -5.2956486482       -6.6653486983
 H        -1.9487492503       -4.3324160462       -7.9775788114
 H        -3.2112926913       -3.7717348537       -5.2350956882
 H        -4.0944361310       -4.0733253464       -6.8354655199
 H        -5.0993195829       -1.2692027280       -8.6957152739
 H        -3.7937579583       -0.4921903490       -8.9366929083
 H        -5.1747399314        0.7523123087      -10.3607024255
 H        -5.1237882122        1.7589979179       -8.9953658374
 H        -9.1604994315        4.7244033903       -9.0655618812
 H        -9.3925437686        3.6001264040      -10.6238182450
 H        -7.1037127681        5.2768622565      -11.1136956875
 H        -8.2969695312        6.3361570294      -10.5454461995
 H        -7.1237167360        3.5824755739      -14.5623248932
 H        -6.7155296755        4.4312304970      -15.9765936659
 H        -7.8036038402        2.7381271662      -16.9582919837
 H        -9.2437430624        3.7344598547      -16.6716046674
 H       -11.0880333882        0.9092772782      -13.0851460203
 H       -12.7565011867        0.7948831545      -13.6215735187
 H       -11.7636252026        3.4803215852      -12.4186718340
 H       -12.4615086564        2.1148631557      -11.3247865673
 H       -14.5502931029        6.8346339883      -14.3178735945
 H       -15.9997015865        6.0385648741      -14.0004042773
 H       -15.7373506375        4.7124909198      -15.6529910678
 H       -14.3326428783        3.9454525196      -15.0327748375
 H       -16.4428643100        5.3936904578      -19.8499572370
 H       -17.0719250461        4.3052154268      -18.4209892078
 H       -17.2264453384        3.0539529245      -20.3318238762
 H       -15.5730760005        2.4399439169      -19.8897967210
 H       -15.7322356059        1.1784307823      -22.6554056324
 H       -15.2823477302        1.7509674724      -24.2693915707
 H       -16.5609132022        0.5517998404      -24.0891530020
 H       -17.5943167728        5.6584926165      -22.0990953453
 H       -18.2821704656        4.0505656385      -21.3966573063
 H       -18.6503248337        4.4256230737      -23.0323390449
 H       -16.6134207339        4.6014471174      -24.8684663454
 H       -15.0611309360        4.1041998213      -24.4543104125
 H       -15.6400686832        5.5905094516      -23.8328168427
 H       -16.5097770509        6.6848713712      -16.4698709529
 H       -16.4962529141        7.3230168977      -18.0504164105
 H       -15.4936455243        8.1093542213      -17.0391743260
 H       -12.7888180263        6.2433558478      -18.5058982550
 H       -13.3827941107        7.8933503589      -18.2658530638
 H       -14.0395957332        6.9290716711      -19.5746359902
 H       -16.5272805398        3.0300987120      -12.4126209981
 H       -16.5750004318        4.6565336753      -12.8153412393
 H       -16.8174494032        4.0822379901      -11.1706650026
 H       -14.8097386412        5.1197953979      -10.0855596741
 H       -13.1672110777        4.5594407466      -10.4771818825
 H       -14.4335735987        3.4419555058       -9.9119822954
 H       -11.4415429114        0.6106177096      -17.6204539625
 H        -9.7363442512        0.9767689207      -17.6265850047
 H       -10.8465615418        2.3066888873      -17.7569963986
 H       -10.0350744340       -0.7255815339      -16.2170658211
 H       -11.4158986416       -0.5023353817      -15.2880281859
 H        -9.9535701274       -0.3844370967      -14.4226590670
 H        -9.3807374077        7.8812175964      -13.8667634363
 H        -7.6818008656        8.0732076667      -14.2022967294
 H        -8.2407210414        8.0420450716      -12.5536206676
 H        -5.9472576556        6.2339547192      -12.2874720871
 H        -5.7660268984        6.1066564776      -14.1105253162
 H        -6.2344678200        4.8123003876      -13.1952683209
 H        -9.4877120976        2.7759050241       -7.4666892255
 H        -9.0304356957        1.0207514076       -7.5637191756
 H        -9.7527649486        2.0680463314       -9.0171997319
 H        -7.6956715270        3.5927489674       -6.9289707719
 H        -6.0420065821        3.4184598776       -7.6006676053
 H        -6.6184888736        2.2150518991       -6.6738692012
 H        -5.5924454211       -2.6657433454       -5.3567409724
 H        -6.3981404330       -1.4200941401       -6.3887208377
 H        -6.1917945542       -1.1754515092       -4.6642665278
 H        -4.0910353553        0.4102399912       -4.3369707636
 H        -2.5174985538        0.2201906130       -5.3446805386
 H        -3.0448029721       -0.9562235225       -4.1355786825
 H         1.8457524498       -2.1604972305       -7.2918886432
 H         2.7572409385       -3.0187944254       -6.1748270466
 H         1.2840210393       -2.2498600365       -5.6328107356
 H         1.7327943705       -3.9703844252       -8.8390679346
 H         0.3401129028       -2.9318279946       -8.7151581559
 H         0.0893102726       -4.8008403810       -8.9193948911
 H         5.7253069366       -5.4839325170       -1.9566139333
 H         4.0466251035       -5.8601798405       -2.2065570073
 H         4.9194944090       -4.6416906332       -3.2671327993
 H         6.4506989047       -6.8071989554       -5.6345892951
 H         7.2690059884       -5.8752343091       -4.3661533724
 H         5.9281901601       -5.1060676181       -5.2369763080
 H         7.7913405265      -12.4040134030       -2.0693817274
 H         7.3389916975      -12.8501042160       -0.5075476515
 H         9.0312795753      -12.8380487451       -0.8974386687
 H         8.9289706892       -9.8242486669        1.2106201623
 H         9.9212008010      -11.2160782896        0.8069800919
 H         8.3211084723      -11.3730882242        1.6545456959
 H        14.4943598818       -7.0438022503       -3.3633516192
 H        13.9173321533       -8.3408272060       -2.3101677688
 H        13.4364983121       -6.7533879832       -1.8503170819
 H        12.7163022929       -5.1469468279       -3.6936981825
 H        12.0883327427       -5.5951013328       -5.3147768554
 H        13.7965733359       -5.7972430772       -4.8491344444
 H        10.1282858113       -9.4891842008      -10.4894778029
 H        11.2563579588      -10.4611514759       -9.6385387218
 H        11.7575489647       -8.9486310728      -10.1510811948
 H        10.4309984010       -7.0035626238       -9.2995831590
 H         9.1126718226       -7.0329295595       -8.0639332344
 H         8.8969528545       -7.6270277977       -9.7521048899
 Na        8.8555040095       -8.6632451998       -4.8143628213
 Na      -11.2843411620        5.6072406452      -14.2808008969
