232

 C         8.6344297195      -11.0363521489       -8.7318989140
 C         9.3035795275       -9.9493199603       -7.9329439174
 O         8.8952197127       -9.7977303534       -6.7721267222
 C        10.3891222369       -8.8838667153       -8.5515866597
 C        11.3116516698       -8.4365913838       -7.3543211700
 O        11.0176835982       -7.7166899055       -6.4071270054
 C        12.8320761557       -8.8505468379       -7.3815956069
 C        13.6160440350       -8.3021402034       -6.1179151964
 C        13.0051702029       -8.5490497893       -4.7604053163
 O        12.6429804687       -9.6053392322       -4.3242767245
 C        12.6911107077       -7.2525574819       -3.8442549613
 C        11.1570086503       -7.4356393175       -3.2496612709
 O        10.1799511256       -6.7923944005       -3.6166696004
 C        10.9762424571       -8.5921310182       -2.3404628697
 C         9.6839096867       -8.6727680505       -1.5021333975
 C         9.0013684799      -10.0532909981       -1.7555506796
 O         9.0574074385      -10.4993926687       -2.8698809195
 C         8.1264649866      -10.8198106414       -0.6883691290
 C         6.7991803089       -9.8972425767       -0.5295644781
 O         6.8276598024       -8.9702321264        0.2518017015
 C         5.8290559098      -10.0297683198       -1.6484922536
 C         5.1633932422       -8.7562536309       -2.0940387128
 C         5.9728815463       -7.9343386345       -3.0398758347
 O         7.1986136721       -8.0885291350       -3.2092164302
 C         5.3718802135       -6.6579322278       -3.7220039283
 C         4.1470421465       -7.2120167808       -4.6357767415
 O         4.3068311139       -8.1695856972       -5.3469719200
 C         2.7908509886       -6.4557737545       -4.5151842407
 C         2.5285926701       -5.6590591944       -5.8054103522
 C         1.0113464573       -5.3089004148       -6.2213854808
 O         0.2035871672       -6.2137804125       -6.1818749936
 C         0.7525462534       -3.8117685386       -6.8562881373
 C        -0.7093973779       -3.4482658589       -6.3452123552
 O        -0.7269569132       -2.7264388111       -5.3164378195
 C        -1.9295074083       -4.1680782025       -6.8721034798
 C        -3.2297959816       -3.6136579140       -6.2070591654
 C        -3.2681892054       -2.1470602567       -6.6621336266
 O        -2.5978624060       -1.7703693516       -7.6110001963
 C        -4.1556340713       -1.0164610150       -5.9879634242
 C        -4.4187356655        0.2040507865       -7.0026128512
 O        -4.4631736812        1.3518114851       -6.6628320965
 C        -4.7528516011       -0.1896755278       -8.4385541108
 C        -5.4547058649        0.8226851649       -9.2728683799
 C        -6.9095674299        0.8854395184       -8.7971410273
 O        -7.5712003584       -0.1591523707       -8.7602002583
 C        -7.6634091802        2.2720979373       -8.6197500816
 C        -7.6049927364        3.1546448467       -9.8887828843
 O        -6.5371234185        3.2212684045      -10.5395626269
 C        -8.7952946707        4.1599638887      -10.0678052002
 C        -8.3598081403        5.4236897374      -10.8165821534
 C        -8.7614070798        5.2742055542      -12.3128444335
 O        -9.7787961808        4.6920856538      -12.5888474385
 C        -7.9003200021        5.9785201939      -13.5332584957
 C        -8.3572843595        5.3632154959      -14.9765103692
 O        -9.3060151287        5.7740055669      -15.6241112627
 C        -7.5929189550        4.0987107155      -15.4638588430
 C        -8.5007296223        3.1231556336      -16.2202143226
 C        -9.1119005233        2.0801159197      -15.3099063636
 O        -8.5214673536        1.7057539124      -14.2957926921
 C       -10.4346730605        1.3311346816      -15.6961432468
 C       -11.3722811545        2.2037430496      -14.7847248116
 O       -11.6376966642        3.3552968790      -15.0229840559
 C       -11.9222150268        1.5864269140      -13.4768055500
 C       -12.4356887935        2.6761484404      -12.5234179824
 C       -13.8931576686        2.9887781354      -12.7146074437
 O       -14.6078025563        2.1736371876      -13.2932871564
 C       -14.5704629772        4.2541927830      -12.0255813166
 C       -14.1296242726        5.4830231611      -12.9027340677
 O       -13.1053539719        6.1157105772      -12.5609508533
 C       -14.8739425972        5.7942392755      -14.0930467493
 C       -14.7773543230        4.9681701428      -15.3844049921
 C       -13.9347058338        5.8213542383      -16.3815825910
 O       -12.7639523516        5.9981573183      -16.1781270398
 C       -14.5997764981        6.1005900163      -17.7088136820
 C       -14.9827527285        4.7133338392      -18.3828295363
 O       -14.1245989541        3.9349090184      -18.3399553241
 C       -16.2978165459        4.5845910102      -19.1630555524
 C       -16.3562914051        3.3476631594      -20.1449211337
 C       -15.7030446759        3.7325687107      -21.5472161076
 O       -14.5492869202        3.9778628730      -21.5882820550
 C       -16.6614048086        3.8645120336      -22.7582805715
 C       -17.0905992698        2.3853989835      -23.1268312352
 O       -18.2909099606        2.2123000674      -23.2652315789
 C       -16.0134009248        1.3635932744      -23.5198010054
 C       -17.9094408507        4.6687190080      -22.2924672308
 C       -15.8503619124        4.5345737821      -23.8443345750
 C       -15.7123928632        7.0940112876      -17.2695649143
 C       -13.5926427422        6.7148295133      -18.7026074035
 C       -16.1649670008        3.9968319271      -11.8705430599
 C       -13.9549890928        4.2518431027      -10.5981235412
 C       -10.8626324106        1.5292966433      -17.1336463950
 C       -10.3855309501       -0.1646560709      -15.3020414761
 C        -8.2170935966        7.4516234642      -13.5234808993
 C        -6.4092728863        5.8184863886      -13.2004429004
 C        -9.1916963632        2.0133002441       -8.2410259776
 C        -6.8949272125        2.8825731598       -7.3460292887
 C        -5.5591166918       -1.6126479061       -5.4936878867
 C        -3.4128069962       -0.4854106544       -4.8214788612
 C         1.7417952841       -2.7072441802       -6.4878365302
 C         0.7058946760       -3.8815345611       -8.4345042451
 C         5.0584729556       -5.5937389137       -2.6394243843
 C         6.3840118494       -6.1347322137       -4.6816289096
 C         7.9319039331      -12.3635737803       -1.2107746886
 C         8.7511424951      -10.7895168681        0.7036215253
 C        13.6159414320       -7.3440784851       -2.5497096712
 C        12.7884323676       -5.8951747733       -4.5976106904
 C        11.0122033598       -9.5603702883       -9.8186598125
 C         9.5759399561       -7.6618436282       -8.8745499304
 H         8.2953192974      -10.6087770872       -9.7255430724
 H         7.7880134918      -11.5345365164       -8.1995292523
 H         9.3546992596      -11.7723138759       -9.0194606561
 H        13.2052539861       -8.5265230223       -8.3659264912
 H        12.8578287140       -9.8936299439       -7.4321822856
 H        13.8069837357       -7.2395573048       -6.3239560088
 H        14.5334559971       -8.8824046310       -6.0883473779
 H        11.8110405395       -8.8762263102       -1.8034579695
 H        10.8278790567       -9.4804572683       -3.0117560242
 H         8.9282345793       -7.8877581943       -1.7097275514
 H        10.0142173388       -8.5893910773       -0.4746308869
 H         5.0641707485      -10.7232749918       -1.4441265140
 H         6.3603404970      -10.5108494212       -2.5323231318
 H         4.9087590783       -8.0338287991       -1.3212430202
 H         4.2111335588       -8.9252373676       -2.6369467279
 H         2.7872548918       -5.7732954672       -3.6885094669
 H         1.9891764650       -7.1701913487       -4.4327541752
 H         2.9096357014       -6.1784573272       -6.6743984695
 H         3.0831199603       -4.7154785580       -5.8300823493
 H        -1.7463190529       -5.3299206668       -6.7336851310
 H        -2.1261000301       -4.1982716666       -7.9846729647
 H        -3.2637519855       -3.8544081593       -5.1346378158
 H        -4.0235142940       -4.1117643280       -6.7672684842
 H        -5.1209715912       -1.2296268502       -8.5093557697
 H        -3.8466779004       -0.4188309281       -8.8961783729
 H        -5.4141555458        0.5342983291      -10.3365001370
 H        -4.9957599752        1.8226925508       -9.1904410520
 H        -9.0930030250        4.5183105195       -9.0455276068
 H        -9.5767855318        3.7581285994      -10.6353004821
 H        -7.3266464680        5.8084282021      -10.7170975524
 H        -9.0039195073        6.3027830029      -10.4064598245
 H        -7.1130582533        3.6138421838      -14.5870088461
 H        -6.7217810765        4.3519304044      -16.0985991906
 H        -7.7444204452        2.5831395666      -16.8990096907
 H        -9.2058549684        3.7369961727      -16.7881749501
 H       -11.0433273475        1.0096587363      -13.0589951748
 H       -12.6194416797        0.8733613367      -13.7110998830
 H       -11.7311518977        3.5573051415      -12.6359867110
 H       -12.3400325998        2.2002662731      -11.4626937028
 H       -14.6508899798        6.8448289891      -14.3178645742
 H       -15.9183530431        5.8349160789      -13.8429413409
 H       -15.7780966472        4.5988014078      -15.6873176766
 H       -14.0959808320        4.1358711025      -15.2584804264
 H       -16.3583277204        5.4191264917      -19.8704637705
 H       -17.0810613332        4.5526344095      -18.4202433471
 H       -17.3671163425        2.9721173122      -20.1111803231
 H       -15.6097311726        2.5752625197      -19.8378414148
 H       -15.7178393290        0.8888459528      -22.5796352635
 H       -15.1905606129        1.8314153982      -24.0485084520
 H       -16.4441648864        0.7594817985      -24.2302072119
 H       -17.5079613480        5.5873785790      -21.8628714533
 H       -18.5128886291        4.0755033842      -21.6254190796
 H       -18.4746245162        4.7478892559      -23.1715752439
 H       -16.5338080838        4.8471131047      -24.6803655628
 H       -15.0084058082        4.0226051774      -24.5047293486
 H       -15.3472056796        5.4612681359      -23.5757157745
 H       -16.5651953518        6.7669191791      -16.7432947413
 H       -16.1716730404        7.4455024784      -18.2296037362
 H       -15.3210226270        8.0801136200      -16.9820376628
 H       -12.5578393423        6.5087061971      -18.4836195767
 H       -13.7957538812        7.8257429492      -18.7325719505
 H       -13.8549263630        6.3625819451      -19.7077703227
 H       -16.5039096158        2.9595195805      -12.0011545753
 H       -16.8997114989        4.5099328047      -12.5034189711
 H       -16.5441850315        4.1180272335      -10.8452995321
 H       -14.4484718580        5.0397871148      -10.0737919958
 H       -12.9141515218        4.4526417018      -10.7631409414
 H       -14.1227048563        3.2530656324      -10.0555747490
 H       -11.7378054954        0.9672083377      -17.4067731876
 H       -10.0379693353        1.2335944656      -17.8170566512
 H       -11.0445179187        2.6491351756      -17.4560274991
 H        -9.9582308498       -0.8095863510      -16.0552037209
 H       -11.3964229616       -0.4952903406      -15.2581620079
 H       -10.0057235223       -0.2580721261      -14.2588584249
 H        -8.9300037005        7.6798336868      -14.2824330059
 H        -7.3189920359        8.0286188645      -13.8180656863
 H        -8.6560204966        7.7893930150      -12.6563362714
 H        -6.2184301111        6.2866881228      -12.2992568435
 H        -5.7809226261        6.1850224150      -13.9890457577
 H        -6.1077250201        4.7963279780      -13.1034999571
 H        -9.6000666056        2.7295757044       -7.5196427539
 H        -9.3277587183        1.0383635160       -7.8371982726
 H        -9.6507599568        2.2205663208       -9.1529619831
 H        -7.6251999413        3.4603884107       -6.8706206976
 H        -5.8928691508        3.4107400829       -7.4515034330
 H        -6.6296594216        2.1022196915       -6.6875135587
 H        -5.6384938319       -2.7080273908       -5.5005752285
 H        -6.3539301294       -1.1463667759       -5.9761915615
 H        -5.7612486408       -1.3591076379       -4.4407452040
 H        -3.9278761335        0.3927638217       -4.4840523206
 H        -2.4084528346       -0.2169043226       -5.1609147041
 H        -3.2365476334       -1.1780104835       -3.8886502595
 H         1.9334154554       -2.2363179743       -7.4155516682
 H         2.7385979818       -2.9082092636       -6.0830213099
 H         1.2487261441       -2.0663476909       -5.8032299837
 H         1.6835520161       -3.9732251848       -8.8381105452
 H         0.2899792816       -2.9130555916       -8.6727182607
 H         0.1134252494       -4.7503920901       -8.7828177899
 H         5.8142467802       -5.6448635618       -1.7942406437
 H         4.1730320739       -5.7600780597       -2.1132765567
 H         5.1347955395       -4.6037397530       -3.0883267331
 H         6.6347994633       -7.0604400743       -5.1602208642
 H         7.1965467563       -5.7137997674       -4.0729627576
 H         5.8793620376       -5.5250800339       -5.4067257326
 H         7.4150922092      -12.5033774414       -2.2394860411
 H         7.1605827296      -12.8497579365       -0.5590089202
 H         8.7755341020      -13.0116710777       -1.1892056528
 H         8.8781365351       -9.6983647990        0.9309211810
 H         9.7899309293      -11.2477846502        0.8329831905
 H         8.1148484212      -11.1622554307        1.5321415108
 H        14.6162617517       -6.9297898680       -2.7890846607
 H        13.7682356697       -8.3651597388       -2.3737781054
 H        13.0438556916       -7.0279408346       -1.6296662696
 H        12.5470474701       -5.1423421373       -3.8180889064
 H        12.0531852523       -5.8190739585       -5.3966363371
 H        13.7965668742       -5.6257245056       -4.9588906082
 H        10.3714067312       -9.5788911278      -10.6628364061
 H        11.2910572471      -10.5938748678       -9.6043205252
 H        11.9139332253       -9.1537994224      -10.1694960454
 H        10.3076005653       -6.9404113725       -9.1015582771
 H         8.8975182090       -7.3481385516       -8.0785517128
 H         9.0237539377       -7.8464578307       -9.8654157605
 Na        8.8425018705       -8.6837894608       -4.5844430341
 Na      -11.2264763940        5.6396445663      -14.2783975484
