232

 C         8.7263417212      -10.9007917226       -8.6888682170
 C         9.3324456639       -9.8837374702       -7.7393046068
 O         8.8886932535       -9.6189303560       -6.6687844780
 C        10.4266090178       -8.9949436617       -8.4147619512
 C        11.3863608485       -8.5711844375       -7.2414169879
 O        10.9005839214       -8.0006129545       -6.2745014812
 C        12.8972429429       -8.7806251207       -7.2698525540
 C        13.6622488220       -8.0367313450       -6.1689467849
 C        13.0255900837       -8.3755899004       -4.8586422045
 O        12.7514665125       -9.5691569028       -4.6869144992
 C        12.7090512718       -7.2155854609       -3.8761434597
 C        11.3274789544       -7.5757451437       -3.3563442290
 O        10.3254575607       -7.1582084979       -3.8971042961
 C        11.2277690417       -8.6434376027       -2.3202585198
 C         9.8579086952       -8.8079252243       -1.6055974505
 C         8.9897140408      -10.0549341383       -2.0321873230
 O         8.8524817985      -10.4829902613       -3.2022899185
 C         8.2125782761      -10.7348357261       -0.9752887283
 C         6.8829510721       -9.7523966715       -0.8470474068
 O         6.7926907991       -8.8496022783       -0.0991563365
 C         5.7303093101      -10.1001272295       -1.7844428169
 C         4.9507292140       -8.8558523391       -2.1496405105
 C         5.9636117479       -7.9301651848       -2.9196895185
 O         7.0919538522       -8.2710635283       -2.7736660343
 C         5.4070678807       -6.7016232203       -3.6487732412
 C         4.1313702141       -7.1645646390       -4.5193519520
 O         4.3976721673       -8.1230240478       -5.2471746604
 C         2.7215522217       -6.6004519043       -4.6064007428
 C         2.7161199330       -5.5833828877       -5.7485476615
 C         1.2923039212       -5.3161816883       -6.1728457276
 O         0.3953071859       -6.1506304600       -6.2765332527
 C         0.7770445761       -3.8913522364       -6.7008948989
 C        -0.6262788749       -3.4681786159       -6.1922393035
 O        -0.7982986337       -2.6239451171       -5.3647300161
 C        -1.9759424065       -4.2705417865       -6.6024182697
 C        -3.2006164479       -3.4262381311       -6.1216817736
 C        -3.2024065073       -2.0737276327       -6.7660675054
 O        -2.8344141284       -1.8682745480       -7.9150275490
 C        -4.0502757947       -1.0270512820       -6.0111457303
 C        -4.4434779155        0.2104290331       -6.8953595043
 O        -4.5006044391        1.3624994876       -6.4589122540
 C        -4.7096075859       -0.1339148893       -8.3392877641
 C        -5.5100501918        0.9028063909       -9.1223290513
 C        -6.9765372953        0.7967985501       -8.9163741279
 O        -7.5989726538       -0.2167162842       -8.8060307137
 C        -7.7292552395        2.1684709672       -8.6362708377
 C        -7.5624744953        3.1029111589       -9.8793122242
 O        -6.5530312807        3.1316879107      -10.5306103590
 C        -8.7908197163        4.1594774173       -9.9986766490
 C        -8.5618011953        5.4169244919      -10.8840638082
 C        -8.9050208759        5.1627042431      -12.3895838111
 O        -9.9427728822        4.5623334287      -12.7655074324
 C        -7.9760880955        5.8325833964      -13.4301914130
 C        -8.3194893652        5.1700765825      -14.8148127842
 O        -9.3944117798        5.5553077805      -15.2540242161
 C        -7.5496115595        4.0622450407      -15.5475443191
 C        -8.5562790319        3.1619821178      -16.3426651045
 C        -9.0741844413        2.0584162694      -15.4494396458
 O        -8.4907345717        1.6733490925      -14.4787267093
 C       -10.4626210752        1.4973123731      -15.7039630841
 C       -11.2965897264        2.3540564656      -14.6854502182
 O       -11.4566373717        3.5351661459      -14.9591242256
 C       -11.8454637196        1.7245194874      -13.4556312150
 C       -12.5048852045        2.6970097604      -12.5228160777
 C       -14.0220975248        2.9596457936      -12.6668828496
 O       -14.7310054026        2.1958939953      -13.2570763681
 C       -14.4969483612        4.2846081454      -11.8917982072
 C       -14.0867256109        5.4015780172      -12.8836509523
 O       -13.0970349387        6.1019544496      -12.8224989206
 C       -14.9704250929        5.8961825088      -14.0666702953
 C       -14.6955755287        5.1314894552      -15.3781544914
 C       -13.8377268901        5.9569354231      -16.4186324608
 O       -12.6592431685        6.0384280426      -16.2486325551
 C       -14.4742408012        6.1731544399      -17.9027090754
 C       -15.0858060121        4.7127504987      -18.3234806421
 O       -14.5628240746        3.6079753687      -18.1024016508
 C       -16.4959899448        4.6971489759      -19.1207491619
 C       -16.5843364385        3.3944775168      -20.0150403168
 C       -15.8804000499        3.7208734228      -21.2992495259
 O       -14.6467087068        3.9333993914      -21.2452223726
 C       -16.6378096382        3.8733726702      -22.6838628682
 C       -17.0979201390        2.3930531747      -23.1279620891
 O       -18.2455574749        2.1663817267      -23.4628433352
 C       -15.9161439621        1.3913821837      -23.3245968984
 C       -17.9286548470        4.7702957495      -22.4718487441
 C       -15.6777282358        4.5537348558      -23.6712009002
 C       -15.6277658174        7.0448811475      -17.7969435753
 C       -13.4657324327        6.7581263881      -18.8824588718
 C       -15.9915094337        4.1697372563      -11.5596077072
 C       -13.5945298713        4.5245352190      -10.6382252525
 C       -11.1627135981        1.7236080565      -17.1011353697
 C       -10.5409796605       -0.0129447935      -15.3791501798
 C        -8.3374295551        7.3349598519      -13.5039813769
 C        -6.4397681324        5.4802735537      -13.1897608907
 C        -9.1745775949        1.8083305259       -8.2519343244
 C        -7.1180393206        2.9568724821       -7.4148645026
 C        -5.4542278494       -1.5196807576       -5.5231600973
 C        -3.1390861802       -0.6833255142       -4.7701945736
 C         1.6652368781       -2.6722121508       -6.4162625776
 C         0.6226837816       -4.1673017837       -8.2295713314
 C         4.9810041231       -5.6222860343       -2.5087754263
 C         6.4574122432       -6.0901382526       -4.5791699126
 C         7.6344074147      -12.1560260087       -1.2863795079
 C         8.9257575371      -10.8039416790        0.4580449591
 C        13.7032663922       -7.1573065303       -2.6396647127
 C        12.6379201756       -5.7303238414       -4.4097802211
 C        11.2499961449       -9.6002515896       -9.5664554507
 C         9.5825732043       -7.8049069576       -9.0504474473
 H         8.6710830575      -10.4376588979       -9.6289780593
 H         7.7899833676      -11.1947331211       -8.3434375230
 H         9.3188255827      -11.8131729810       -8.8251400847
 H        13.2259412936       -8.4666906427       -8.2785918832
 H        13.1187885097       -9.9315658331       -7.1897548833
 H        13.6012537261       -6.9728275209       -6.4929907834
 H        14.6776410977       -8.5049130788       -6.2958935967
 H        12.1160852318       -8.5164103458       -1.5870351649
 H        11.3670090329       -9.6338635090       -2.7240630400
 H         9.2919865221       -7.8905187335       -1.8988444980
 H         9.9369833544       -8.8232516019       -0.4739501007
 H         4.9873966540      -10.8386290093       -1.3498241376
 H         6.0873723315      -10.5433078690       -2.6822195161
 H         4.7247094865       -8.2439336158       -1.2455930043
 H         3.9976004008       -8.9896417363       -2.6404525012
 H         2.3722131295       -6.1100500694       -3.6572664169
 H         2.0831451036       -7.4389500873       -4.9294947131
 H         3.1940856127       -6.0077249903       -6.6464073707
 H         3.2480746021       -4.6626297604       -5.5402481834
 H        -2.1230387190       -5.2447157195       -6.3134207487
 H        -2.1163021971       -4.4562520948       -7.6647318050
 H        -3.1732202501       -3.3474641769       -5.0539369907
 H        -4.0612876906       -4.0113003160       -6.4328026388
 H        -4.9890958745       -1.2069620516       -8.3411051656
 H        -3.7164931977       -0.3006142830       -8.8823457858
 H        -5.4621121607        0.7542785563      -10.2445893767
 H        -5.1451513408        1.9074854552       -8.8713646008
 H        -8.9804135635        4.5183324898       -8.9973105486
 H        -9.6836164428        3.5736603817      -10.3949492263
 H        -7.5036167523        5.7286986356      -10.8746118707
 H        -9.0748434887        6.2584896223      -10.5088113813
 H        -7.0327331267        3.4450659151      -14.7881620786
 H        -6.6980772038        4.4827148905      -16.1300753064
 H        -7.9351520922        2.7295313896      -17.0629064457
 H        -9.3637956379        3.7858697720      -16.7866873486
 H       -11.0301881819        1.2651120019      -12.9623949613
 H       -12.5712625402        0.8799477191      -13.7798880973
 H       -11.9718557281        3.5810109818      -12.5110619282
 H       -12.3585439097        2.2376390458      -11.5471444575
 H       -14.6157165833        6.9199013205      -14.2348610461
 H       -16.0600903332        5.9161077934      -13.8116937605
 H       -15.5910446200        4.7704069114      -15.9099021623
 H       -14.1084920394        4.2232127387      -15.0632854430
 H       -16.6032228972        5.5972626135      -19.7057073129
 H       -17.2835441374        4.5846390289      -18.3712903399
 H       -17.6153314139        3.1511699981      -20.2587115703
 H       -16.1601218642        2.6591635178      -19.3718341808
 H       -15.9381567816        0.7057082706      -22.4950390761
 H       -14.9690735785        1.9905393391      -23.4318289341
 H       -15.9982950602        0.9972651886      -24.3953866238
 H       -17.6814861180        5.4745342060      -21.7031933877
 H       -18.7491937131        4.1366960168      -22.0915372761
 H       -18.1789458644        5.1186432100      -23.4833574129
 H       -16.0515765047        4.8832462889      -24.5968319362
 H       -14.8302355606        4.0376145389      -23.9058991644
 H       -15.2666176944        5.4598314327      -23.2319116221
 H       -16.5125484317        6.4798503482      -17.4154902641
 H       -16.0490090794        7.4046322926      -18.6943633616
 H       -15.4780416711        7.9310298439      -17.2178179323
 H       -12.4703263392        6.9296240632      -18.4138636928
 H       -13.8654288799        7.6466287326      -19.3164716050
 H       -13.3327775159        6.0476051631      -19.7019941202
 H       -16.2865886205        3.2504415563      -11.1556771895
 H       -16.5970326252        4.2457403136      -12.4091377112
 H       -16.4005301848        4.8313366054      -10.8334562280
 H       -14.0032774787        5.3655077055       -9.9692191065
 H       -12.5723142411        4.7155995721      -11.0019483367
 H       -13.5649557376        3.5565856332      -10.1994245071
 H       -12.1934865816        1.2459088831      -16.9831022523
 H       -10.5933043580        1.4886994697      -17.9787441400
 H       -11.3657771111        2.7068987980      -17.3006712784
 H        -9.9101341238       -0.4963467773      -16.1570018290
 H       -11.5253991447       -0.5579542827      -15.4389526373
 H       -10.0690899641       -0.1692652893      -14.4190427470
 H        -8.8821323404        7.5890488225      -14.4761594152
 H        -7.4706618764        7.9302381322      -13.4899710322
 H        -9.0545765788        7.5908022746      -12.6613004452
 H        -5.9661643808        6.1278709294      -12.3403520444
 H        -5.8842220905        5.6677352035      -14.1244374728
 H        -6.1808923013        4.4392295119      -13.0023030988
 H        -9.6114986209        2.7119379949       -7.9597559151
 H        -9.1764258250        1.3293617153       -7.2381547685
 H        -9.6661003741        1.2648979311       -9.1015326695
 H        -7.5212219891        4.0326310204       -7.3596991593
 H        -6.0627402768        2.8974539325       -7.4865454603
 H        -7.2841959620        2.4389559157       -6.4458169898
 H        -5.7920164452       -2.4297052549       -5.9230970978
 H        -6.1935633140       -0.7159051257       -5.7414201282
 H        -5.5849122494       -1.6847447452       -4.4688826276
 H        -3.4263928042        0.3058455457       -4.4264531297
 H        -2.0463999845       -0.6907672780       -5.0221874312
 H        -3.2768746170       -1.2907198976       -3.9984459787
 H         1.9332339637       -2.1380015150       -7.3416636288
 H         2.6486893311       -3.0719136536       -6.1272339707
 H         1.3164162836       -2.0433429572       -5.5465993315
 H         1.6279585280       -4.4565218078       -8.4832892240
 H         0.2368339988       -3.3208346672       -8.7478161219
 H         0.0339542011       -5.0464523393       -8.4202272013
 H         5.8065284600       -5.1857450335       -2.0395112603
 H         4.4071820812       -6.0131992482       -1.6250010701
 H         4.4848652629       -4.8648682024       -3.0580258415
 H         6.5390295993       -6.8432263769       -5.4196937686
 H         7.3005529942       -5.8195403287       -3.9526486026
 H         5.8751627574       -5.3146188167       -5.1107842533
 H         7.2567699434      -12.2489207659       -2.2609308012
 H         6.7882123869      -12.5232696080       -0.7084996554
 H         8.5515553507      -12.8387946384       -1.1865790821
 H         9.3017201904       -9.8748100987        0.8412846950
 H         9.7366990641      -11.4827615444        0.4196464979
 H         8.2836822202      -11.2329285870        1.2230797544
 H        14.5815477761       -6.6634463114       -2.9952879776
 H        14.0613725516       -8.1398321813       -2.1882017232
 H        13.2113200496       -6.5240713121       -1.9428531458
 H        12.1671896482       -4.9998359340       -3.7711230209
 H        12.0700828528       -5.7325575020       -5.3696580561
 H        13.6627436061       -5.4345562475       -4.5945267659
 H        10.7035257292      -10.0836803410      -10.3969835929
 H        11.9937058694      -10.3177793500       -9.2680487692
 H        11.8318538811       -8.8082517472      -10.1268480578
 H        10.1749499471       -6.9697428728       -9.5341542849
 H         9.1564831628       -7.4193117549       -8.1148631258
 H         8.8231106608       -8.1603346586       -9.7083684466
 Na        9.1125794817       -8.6588751053       -4.5494277158
 Na      -11.4816196490        5.6762116968      -14.3824991433
