232

 C         8.6881333301      -10.9507686011       -8.6536143767
 C         9.3409300020       -9.8947876325       -7.8154444483
 O         8.8658446799       -9.6727309676       -6.7030908868
 C        10.4870366590       -8.9510158523       -8.3078390127
 C        11.3605198357       -8.4753207160       -7.1607661170
 O        10.9364677521       -8.0167431298       -6.0801108822
 C        12.9115053295       -8.7011131001       -7.3996358659
 C        13.6546130294       -7.9028681613       -6.3614726329
 C        13.1654847583       -8.3172787307       -4.9585547036
 O        12.8669185691       -9.4434512231       -4.6549209498
 C        12.8043601293       -7.1395251429       -3.8861389024
 C        11.3822374134       -7.6375407037       -3.3069174600
 O        10.3902794575       -7.1289815584       -3.8024906121
 C        11.2968681670       -8.7600210976       -2.2886100289
 C         9.8443240292       -8.9425765961       -1.7261810909
 C         8.9526292394      -10.0908655690       -2.0949347427
 O         8.8917540872      -10.4411969850       -3.2458442027
 C         8.0003106798      -10.8147219141       -1.0007930267
 C         6.7183690252       -9.8031725007       -0.7893762294
 O         6.8298660837       -8.7549565754       -0.1909383869
 C         5.5489817099      -10.1684587638       -1.7034563332
 C         4.8954855638       -8.9253940434       -2.1197863292
 C         5.9412115396       -7.9330685000       -2.8042734340
 O         7.1386499754       -8.1255867189       -2.9023280182
 C         5.2855175007       -6.6680601743       -3.5434281253
 C         4.1993574155       -7.2632548746       -4.5511979381
 O         4.4793840050       -8.2162663980       -5.2671607207
 C         2.8607249871       -6.5426237158       -4.6318227349
 C         2.6585226589       -5.4205890532       -5.7214372885
 C         1.1905779244       -5.2844062206       -6.1023384372
 O         0.5431285486       -6.3197353955       -6.1477969968
 C         0.7689111387       -3.9339744072       -6.6857263064
 C        -0.6053770385       -3.5073342911       -6.0848514516
 O        -0.7004547228       -2.5424099938       -5.2941380911
 C        -1.8323933842       -4.3532784071       -6.4726662973
 C        -3.1760340328       -3.5729777035       -6.1096616263
 C        -3.3591041886       -2.2152365648       -6.8454023128
 O        -2.7758655916       -1.9997325202       -7.9036642345
 C        -4.0805572119       -0.9972401005       -6.0201149411
 C        -4.3410455000        0.2597818242       -6.8797908604
 O        -4.4910725023        1.3399788610       -6.3755549042
 C        -4.6519040416       -0.0653117716       -8.3302338967
 C        -5.4415022288        0.9680323709       -9.0993157963
 C        -6.9427637729        0.8289962044       -8.7624966359
 O        -7.5778358860       -0.2310921550       -8.8844733759
 C        -7.7702010996        2.1740321206       -8.5874519049
 C        -7.7542236198        3.1231602716       -9.8908221259
 O        -6.7261216073        3.2655309010      -10.5912593199
 C        -8.8138402258        4.1347680955       -9.9977550204
 C        -8.4780292569        5.2068651155      -10.9409658803
 C        -8.8485982359        5.0684632584      -12.4111063433
 O        -9.9699462469        4.6196462142      -12.6681416243
 C        -7.9551861532        5.7474154623      -13.5014846367
 C        -8.4318153297        5.1312821549      -14.8623750766
 O        -9.5101624932        5.4437798064      -15.3142421306
 C        -7.5429745135        4.1051885715      -15.5556199334
 C        -8.4557651541        3.2176039581      -16.4093834318
 C        -9.0429798764        2.0608991938      -15.5417476282
 O        -8.3992627745        1.6380048915      -14.5965731384
 C       -10.5613569937        1.5129683018      -15.7414327768
 C       -11.3456429883        2.3787244076      -14.7083034527
 O       -11.5217256073        3.5496581484      -14.9443277364
 C       -11.8625147632        1.6508587688      -13.4250953260
 C       -12.4495450582        2.6202025473      -12.3425430907
 C       -13.9240297727        2.9977227158      -12.5640092638
 O       -14.7858400891        2.3827843717      -13.2093901357
 C       -14.4738926662        4.3694234704      -11.9251824628
 C       -14.0933587152        5.5427260662      -12.9475475576
 O       -12.9714565581        5.9386423254      -12.8084116439
 C       -15.0361613571        5.8505923182      -14.1329609482
 C       -14.7373672854        5.2143035962      -15.4761161795
 C       -13.7680745184        5.8959478927      -16.5867797718
 O       -12.6351883302        6.2437015092      -16.3211499441
 C       -14.5653603415        6.0611435894      -17.8723208195
 C       -15.1514534842        4.5737743180      -18.3446024885
 O       -14.6965624832        3.5885023436      -17.9447566787
 C       -16.5447056568        4.6345389635      -19.0010416051
 C       -16.8507550592        3.4925582610      -20.0405795582
 C       -15.9296848203        3.7568678809      -21.2739046041
 O       -14.7560220543        3.8651801090      -21.1730717330
 C       -16.5796610828        3.8709826759      -22.6706039078
 C       -16.9610688788        2.5097483283      -23.2066666836
 O       -18.1330466272        2.2450041847      -23.4437416993
 C       -15.8850798138        1.4002110878      -23.2439426667
 C       -17.9067878117        4.7258578094      -22.4749835263
 C       -15.6209586162        4.4929089140      -23.6320742514
 C       -15.7069215766        7.1995997831      -17.8535420369
 C       -13.3691685800        6.5933696949      -18.8764166414
 C       -15.9315935633        4.3093042927      -11.4602851423
 C       -13.6068798588        4.7199508812      -10.5941388868
 C       -11.1508798577        1.7320890589      -17.1689632004
 C       -10.6398706441       -0.0309050081      -15.5226901531
 C        -8.2794114626        7.2019493434      -13.4461402837
 C        -6.4541346147        5.4072831093      -13.0584427432
 C        -9.3056428964        1.7719492070       -8.2420387178
 C        -7.2342722293        2.9787123567       -7.4003580869
 C        -5.4257022073       -1.5205620463       -5.5316762950
 C        -3.0860226922       -0.5333714907       -4.9077238428
 C         1.7213783887       -2.6457071922       -6.4436641369
 C         0.6416153891       -4.1860093792       -8.2422144788
 C         4.8518689254       -5.6277481916       -2.5834741756
 C         6.4025253444       -6.0505999397       -4.4635390037
 C         7.7092062528      -12.2405776755       -1.3985848192
 C         8.9169409293      -10.7813406904        0.3205096271
 C        13.9392711864       -7.0994086477       -2.7762628500
 C        12.5706674062       -5.7020210168       -4.3884045630
 C        11.2945472049       -9.6966208508       -9.4756298704
 C         9.7863764548       -7.8248804865       -8.9961608787
 H         8.4939188779      -10.7687504134       -9.7304927417
 H         7.8302927694      -11.3059051635       -8.0984026049
 H         9.3570369917      -11.7777927819       -8.5752076893
 H        13.2587652823       -8.6106973849       -8.4559268990
 H        13.0670170097       -9.7181083007       -7.0861847898
 H        13.3556974351       -6.8894651524       -6.5307339713
 H        14.6646577643       -8.0778943436       -6.5868132542
 H        11.9499694447       -8.4129867183       -1.4603615427
 H        11.7274151370       -9.7329926499       -2.5997748795
 H         9.3871274508       -8.0506387597       -2.0608699119
 H         9.8629206236       -8.8921917208       -0.6553720053
 H         4.8317801934      -10.8066166256       -1.2704244826
 H         5.9376767965      -10.6865404233       -2.6328398054
 H         4.3799614978       -8.3724051000       -1.3114328813
 H         4.1398516922       -9.0451841488       -2.8915861492
 H         2.6628165218       -6.0568593148       -3.6143901915
 H         2.1655581957       -7.3280515907       -4.8221780542
 H         3.1729075945       -5.7389609512       -6.6877739138
 H         3.1610765871       -4.4745553515       -5.4153474104
 H        -1.8791923204       -5.3170133511       -6.0698778124
 H        -1.8352392763       -4.6561365880       -7.4485065599
 H        -3.2106285120       -3.4533352461       -5.0001692074
 H        -3.9754188061       -4.2743732639       -6.4089581322
 H        -5.0693163787       -1.1002033780       -8.3074885456
 H        -3.8101043861       -0.2657316743       -8.8225924302
 H        -5.4665113810        0.7581543655      -10.2079183184
 H        -5.1094184934        1.9406229967       -8.8295496337
 H        -8.9525522915        4.6709245122       -8.9657357003
 H        -9.7930591713        3.6322427856      -10.3096154209
 H        -7.4687984161        5.5147735441      -10.8116949444
 H        -9.0178181368        6.0540140677      -10.6369077109
 H        -6.8987551876        3.5363244010      -14.8801529035
 H        -6.8507387904        4.6799358252      -16.0852974056
 H        -7.8437442728        2.8372409935      -17.1665711528
 H        -9.2328415892        3.8603002024      -16.7791273268
 H       -10.9519348796        1.1186534575      -12.9653318925
 H       -12.6295066462        0.8779652828      -13.6724109477
 H       -11.9264082458        3.5501993013      -12.2698317983
 H       -12.2645488696        2.0646347362      -11.3271684726
 H       -15.2317199548        6.9373811726      -14.3145671303
 H       -15.9696590761        5.3171719479      -13.7888217198
 H       -15.7161615155        5.0875791189      -15.9684708262
 H       -14.4436205625        4.2256991763      -15.2437063482
 H       -16.5555056626        5.6113845953      -19.5726981728
 H       -17.2996905175        4.6879246602      -18.1929121360
 H       -17.8926045560        3.5168787096      -20.3071594059
 H       -16.6538568556        2.5431272727      -19.4731651600
 H       -16.3043255543        0.7528269443      -22.5195163912
 H       -14.8491652754        1.8179942030      -22.9940655122
 H       -15.7523386371        1.0256802564      -24.2476773399
 H       -17.7399548471        5.4998514272      -21.7248164749
 H       -18.6569627073        4.0212119376      -21.9944153934
 H       -18.2200787101        4.9800189547      -23.4962848461
 H       -15.9034637758        4.5199083058      -24.6287470441
 H       -14.5774299115        4.0515826876      -23.5758957316
 H       -15.4579232264        5.4824094396      -23.3962504198
 H       -16.6143390763        6.9992873817      -17.3055961690
 H       -16.1278418399        7.2759157748      -18.8267355092
 H       -15.3668858609        8.1941444106      -17.5252560951
 H       -12.5618293834        6.9039675177      -18.2488198369
 H       -13.7383657786        7.4738169274      -19.4405518326
 H       -12.9679840020        5.8718163631      -19.5372243847
 H       -16.1622633941        3.7194164495      -10.5985669280
 H       -16.5590865467        3.8919852082      -12.2225434678
 H       -16.4368642308        5.2559565067      -11.2026971784
 H       -14.1880409654        5.5008679006      -10.1238824351
 H       -12.6143122694        4.9681302054      -10.7249454477
 H       -13.6718578587        3.7768103055      -10.0547065669
 H       -12.1897986200        1.4248321900      -17.2457167735
 H       -10.4589729042        1.3595287780      -17.8242152759
 H       -11.1000620671        2.8085441466      -17.5249801170
 H       -10.1707246381       -0.5925215106      -16.3496771503
 H       -11.6638132520       -0.3975988449      -15.4389187492
 H       -10.0744663483       -0.2821609058      -14.6030755297
 H        -8.9275157882        7.6567005317      -14.2690328492
 H        -7.3299668478        7.7631905878      -13.4096698174
 H        -8.7822729238        7.3615955618      -12.4697657453
 H        -6.1220628333        6.0393855263      -12.1961232396
 H        -5.6572160121        5.4368518951      -13.8676403287
 H        -6.3871490391        4.3618255438      -12.7602900549
 H        -9.9220388249        2.6391604212       -8.0959094202
 H        -9.3009827416        1.4342841322       -7.1452216460
 H        -9.6257561445        0.9778070065       -8.9846197313
 H        -7.5968481951        4.0288618162       -7.4327222146
 H        -6.1237624703        2.8494279695       -7.1828681783
 H        -7.6807128661        2.5540633381       -6.5648440807
 H        -5.7579219794       -2.1792847119       -6.3286057223
 H        -6.2098620144       -0.7681608269       -5.4201383066
 H        -5.5284000637       -2.1997173987       -4.6371307713
 H        -3.4073346691        0.3586230412       -4.4952801522
 H        -2.0302488647       -0.4341095696       -5.2534068095
 H        -3.1265218748       -1.2953655908       -4.0767924144
 H         1.6208442648       -1.9639384445       -7.2431891693
 H         2.8135709387       -2.9569429956       -6.4683324914
 H         1.5190214062       -2.1885189761       -5.4473156538
 H         1.6602141903       -4.4190618655       -8.5295055435
 H         0.1552918442       -3.3468425591       -8.7358077987
 H         0.0391873873       -5.1368542360       -8.4796160841
 H         5.7369605266       -5.0425573978       -2.1963920604
 H         4.4790991443       -6.0808509056       -1.6689122657
 H         4.1785677141       -4.9459796339       -3.0203657012
 H         6.2798415063       -6.7266675250       -5.3085636728
 H         7.3151291635       -6.0554309759       -3.8820315921
 H         6.0748501168       -5.1624454452       -4.8736525445
 H         7.6833129169      -12.3959694989       -2.4774661612
 H         6.7498224999      -12.6473503807       -1.1623542085
 H         8.5653168002      -12.7774515486       -0.9860732583
 H         9.1153908265       -9.7997020794        0.6062426982
 H         9.8391823810      -11.2532378183        0.0381056666
 H         8.6193620526      -11.3513192234        1.1790615381
 H        14.8249472950       -6.8116252506       -3.3507147159
 H        14.1626662992       -8.0741671561       -2.3889073015
 H        13.7957648015       -6.2777964937       -2.0063013356
 H        12.1662669100       -5.0333154475       -3.6132297656
 H        11.8089807897       -5.7132375153       -5.1799761115
 H        13.4840813588       -5.2636489420       -4.7071232385
 H        10.5741970329      -10.3544791428      -10.0101232049
 H        11.9704431577      -10.4522031332       -9.0374426255
 H        11.7978070413       -9.2305422090      -10.3448007459
 H        10.4244503350       -7.2909582649       -9.6406942883
 H         9.5057503260       -7.1639090618       -8.1901632489
 H         8.9012943528       -8.1978858571       -9.5675601873
 Na        9.0811038092       -8.7028569947       -4.7190700956
 Na      -11.6122798482        5.7448952625      -14.3869859918
