232

 C         8.7372368258      -11.1399022098       -8.6935964316
 C         9.1610288043       -9.9396470287       -7.8285724778
 O         8.6148583173       -9.8304312953       -6.7676317586
 C        10.5277005846       -9.1502725593       -8.3573202622
 C        11.5046872409       -8.4994853934       -7.2551439634
 O        10.9444601997       -8.1056260948       -6.2525057976
 C        13.0129432028       -8.4490100468       -7.4923174401
 C        13.6933283022       -7.5673659614       -6.3968186360
 C        13.2806264168       -8.1783327719       -4.9841497710
 O        13.4514773413       -9.3513553573       -4.6604730107
 C        12.8455244888       -7.0651431382       -3.8030126513
 C        11.4916422186       -7.5147032409       -3.1063465802
 O        10.4486594724       -6.9261421900       -3.3774672307
 C        11.2717314160       -8.8449616545       -2.3604359579
 C         9.8453751178       -8.9359918955       -1.6815278453
 C         9.0064889075      -10.1369692930       -2.0808819723
 O         8.9626388602      -10.3557401572       -3.3034601467
 C         8.1385015851      -10.8787596606       -1.0715763775
 C         6.8880613097       -9.8236208003       -0.9638338653
 O         7.0209909493       -8.9741048200       -0.1542351185
 C         5.5218109246      -10.1302001535       -1.6022688630
 C         4.8539827915       -8.8197768551       -2.1922412066
 C         5.9271187182       -7.9454820795       -3.0199864205
 O         7.0720553001       -8.3246885499       -3.0963803708
 C         5.3285501861       -6.6605459829       -3.5868869748
 C         4.2379671922       -7.1809631049       -4.6058850884
 O         4.5608422590       -8.1689008298       -5.2629756730
 C         2.7443823548       -6.6891282173       -4.6979947210
 C         2.6839658329       -5.3826055437       -5.4270886330
 C         1.3379931481       -5.2049657476       -5.9783173951
 O         0.5512726753       -6.1222523371       -5.8940073310
 C         0.8332333273       -3.8699594328       -6.7456435913
 C        -0.5322168632       -3.5634459322       -5.9820218654
 O        -0.5639508340       -2.6593052124       -5.2528786569
 C        -1.8502429215       -4.3835010882       -6.2612575753
 C        -3.1767970436       -3.6321463106       -5.9457032322
 C        -3.2296380993       -2.3110759420       -6.7306505897
 O        -2.7006889313       -2.2483617432       -7.8191411210
 C        -3.9685797130       -1.1139184757       -6.1069155133
 C        -4.3507140836        0.0877236639       -7.0518925995
 O        -4.4479272802        1.1918375781       -6.5116830038
 C        -4.5869473438        0.0266456358       -8.6175344274
 C        -5.4098469729        1.2256941107       -9.0651871577
 C        -6.9776627353        0.9901845798       -8.7893176624
 O        -7.4211230096       -0.1005900482       -8.8784127303
 C        -7.9617443726        2.1793822836       -8.4769047249
 C        -7.9610051314        3.0489961646       -9.7444685648
 O        -7.0260243787        3.0375321961      -10.4747334987
 C        -9.0982585453        4.1135204931       -9.9258200141
 C        -8.5749238572        5.3696646323      -10.8292464853
 C        -9.0284424797        5.2075163577      -12.3198688414
 O       -10.1129126745        4.6827391470      -12.5366780775
 C        -7.9554422649        5.5714367671      -13.4691454174
 C        -8.4469186885        5.0358494694      -14.8394455397
 O        -9.4713892849        5.4917010669      -15.3592723717
 C        -7.5788313015        4.0379195483      -15.7363529026
 C        -8.4275148191        3.0452933104      -16.5331449545
 C        -9.0852175617        1.9624530198      -15.6419553283
 O        -8.4090780976        1.4231216599      -14.8273352609
 C       -10.6268325351        1.5762518327      -15.7678435642
 C       -11.5169081192        2.3528645520      -14.6712428301
 O       -11.9120077546        3.4796926506      -14.9750362486
 C       -11.9759377856        1.6252416060      -13.4329849262
 C       -12.3962754224        2.5314005004      -12.2685160387
 C       -13.8876898243        3.0996652691      -12.4137234022
 O       -14.6548828785        2.6303145916      -13.1800169601
 C       -14.4393710904        4.5288467191      -11.7108685691
 C       -13.9768617334        5.5081047423      -12.8918571094
 O       -12.9239445881        6.1615969453      -12.8878199212
 C       -14.9870687258        5.8229189644      -14.0805963172
 C       -14.7450269907        5.0448643881      -15.4747695145
 C       -13.9666546080        5.8203162742      -16.4967728442
 O       -13.0297577494        6.5061671365      -16.1244752263
 C       -14.5670336522        6.0559039625      -17.9821613021
 C       -15.3552664462        4.7186021952      -18.2331394313
 O       -14.8230316242        3.6245971396      -17.8504568893
 C       -16.8043324944        4.6751521481      -18.8804687209
 C       -16.9312827097        3.6178967465      -19.9390376449
 C       -16.0144918874        3.8802635791      -21.1378199425
 O       -14.7790255106        3.7237942760      -20.9593225553
 C       -16.5520258444        3.8983249178      -22.5846654537
 C       -16.9364606477        2.4505012269      -23.1134103807
 O       -18.0369939523        2.1838057870      -23.5560970432
 C       -15.8054984673        1.4120270740      -23.1334090507
 C       -17.8158201445        4.7971006983      -22.7926443596
 C       -15.5607402949        4.5666914041      -23.5289501729
 C       -15.3741583759        7.3558817454      -17.9367057321
 C       -13.6012208230        6.0686162807      -19.2207901689
 C       -15.9471665449        4.4432569816      -11.5340446568
 C       -13.6331776326        4.9264952849      -10.4147459307
 C       -11.0626802836        1.9831246974      -17.2264225544
 C       -10.6190126913        0.0306760581      -15.5937903391
 C        -8.1154107518        7.2054903874      -13.4808459156
 C        -6.5186081498        5.2261105640      -13.2785505723
 C        -9.3762345273        1.6556244993       -8.3173239313
 C        -7.4373829370        2.9614383915       -7.2468214738
 C        -5.2948184905       -1.5991235553       -5.4267621502
 C        -3.0626800939       -0.5975374735       -4.8904302595
 C         1.8865437420       -2.7391218506       -6.5820560811
 C         0.5100524839       -4.1378427440       -8.2894324639
 C         4.6715975525       -5.6865586107       -2.5767090288
 C         6.4783514393       -5.8656329405       -4.4064411976
 C         7.8050439842      -12.3049573148       -1.6355896700
 C         8.7233211192      -10.9022373644        0.3924809877
 C        14.1619669156       -7.1575960785       -2.9632310068
 C        12.5996015015       -5.6017744994       -4.4078877078
 C        11.1859279488      -10.0196394243       -9.4193591886
 C        10.0186161301       -7.8236242907       -8.9586930816
 H         8.4813604991      -10.7435012589       -9.6753346727
 H         7.8763370756      -11.6560814353       -8.2435870884
 H         9.5230649962      -11.9580179982       -8.8565871540
 H        13.1049463308       -8.0665020555       -8.4636577794
 H        13.4155626107       -9.4830468172       -7.4830102618
 H        13.2459775750       -6.5973531568       -6.6174792780
 H        14.7902781846       -7.5560323393       -6.5944456805
 H        12.0036182347       -9.1726715469       -1.6349473860
 H        11.3692306672       -9.5115733192       -3.2027378876
 H         9.2797337828       -8.0574584922       -2.0727319067
 H         9.9441642440       -8.7315951149       -0.6076578258
 H         4.8696169336      -10.5296756949       -0.7495762634
 H         5.6277265315      -10.8331532710       -2.3732506372
 H         4.4852020486       -8.1516670224       -1.4253764049
 H         3.9938068369       -8.9113432477       -2.8648198393
 H         2.2514705415       -6.6634944962       -3.7787884660
 H         2.2944692089       -7.4941216911       -5.3165705072
 H         3.4322175172       -5.4571440691       -6.1911972747
 H         3.0433995888       -4.5849040789       -4.7798781307
 H        -1.7723912757       -5.4265393467       -5.7920831184
 H        -1.8906478049       -4.8299789143       -7.3498960774
 H        -3.1627666951       -3.4532926862       -4.8770419832
 H        -4.0897065900       -4.2169631536       -6.2037782603
 H        -5.1590819414       -0.8570175145       -8.8965504702
 H        -3.5017346246       -0.0897958789       -9.1494435495
 H        -5.4395779039        1.1986936236      -10.1265975489
 H        -5.1596347638        2.1743805910       -8.5509793766
 H        -9.3539047603        4.5104888239       -9.0061322565
 H       -10.0157011574        3.7533022877      -10.3628373415
 H        -7.4553574514        5.4882631847      -10.7359732976
 H        -8.9359453041        6.4150195486      -10.5320225551
 H        -6.8236835517        3.5237456924      -15.1641226518
 H        -6.9381205652        4.7427168385      -16.3500892830
 H        -7.7593211193        2.4926235288      -17.2751934914
 H        -9.1771826612        3.6953372248      -17.0597465606
 H       -11.2559870238        0.9418005886      -13.1127323948
 H       -12.8749540528        1.0996323141      -13.7875636395
 H       -11.6478978871        3.3679013337      -12.2025667525
 H       -12.2101806893        1.9524762756      -11.3946342000
 H       -14.8455819677        6.8508914420      -14.3299979514
 H       -15.9709796870        5.5740911720      -13.7519340135
 H       -15.7158806295        4.8512541758      -15.8863047682
 H       -14.3329205252        4.0116051750      -15.3104719107
 H       -17.0681540971        5.6434638327      -19.2911269570
 H       -17.5578366317        4.5056047259      -18.0638336017
 H       -18.0113084044        3.5922649014      -20.2470696731
 H       -16.6862155555        2.6593907069      -19.4848591436
 H       -16.2178260365        0.4711571283      -22.8397795855
 H       -15.0363370160        1.7902317174      -22.5124227766
 H       -15.3987298574        1.4596626235      -24.1332858556
 H       -17.5095757118        5.7246371938      -22.2978490773
 H       -18.6117095863        4.4553110875      -22.1877122851
 H       -17.9757993055        4.8542989411      -23.8708770389
 H       -15.6360017258        4.2452268253      -24.6241658732
 H       -14.5879877669        4.2234352826      -23.2215687284
 H       -15.4272685724        5.7180843356      -23.6520984626
 H       -16.0421455124        7.1884039934      -17.0496210639
 H       -16.1196059055        7.6575379751      -18.6713449527
 H       -14.8209608555        8.1536139282      -17.5039039550
 H       -12.9289359636        6.9444179167      -19.2435773898
 H       -14.0916860003        5.9952108769      -20.1479629663
 H       -12.9173691233        5.2328372385      -18.9833935452
 H       -16.2616790578        4.2844337070      -10.4732044304
 H       -16.5026325243        3.6566665136      -12.1110322620
 H       -16.5199628139        5.3413362138      -11.8175722821
 H       -13.8743926462        5.9970591917      -10.2449274806
 H       -12.5477449691        4.9557858840      -10.6824270999
 H       -13.8035405853        4.2668187300       -9.6206686139
 H       -12.1043617063        1.5939271815      -17.3665126043
 H       -10.2599987695        1.7336092870      -17.9912065632
 H       -11.1253699529        3.0175272070      -17.3698134565
 H       -10.1618584058       -0.4736835682      -16.4403940332
 H       -11.6571685894       -0.2952347182      -15.5051880256
 H       -10.0212653649       -0.3132528745      -14.7745792647
 H        -9.1612887379        7.3958424459      -13.5692305220
 H        -7.6028968277        7.6985813214      -14.2640601249
 H        -7.7062175277        7.5954007721      -12.5435007467
 H        -6.0992784448        5.8212545357      -12.4791992069
 H        -5.8907170804        5.4251297247      -14.0859763081
 H        -6.4100601666        4.1893702276      -13.0491574399
 H        -9.9811860982        2.4613077484       -7.9289484163
 H        -9.3223670005        0.9500726894       -7.5130100021
 H        -9.6823563812        1.0808480617       -9.1716216243
 H        -7.8998726154        3.9179279885       -7.0875727455
 H        -6.4146056792        3.0763214259       -7.3923988155
 H        -7.5933450447        2.3540237319       -6.3037319483
 H        -6.3043644258       -1.5564451908       -5.8869289755
 H        -5.4303589320       -1.1676522695       -4.4117731105
 H        -5.1620561870       -2.6390235669       -5.2411482906
 H        -3.6027194424        0.1355490466       -4.1725401212
 H        -2.1725821380       -0.0439597336       -5.2757048802
 H        -2.7685930981       -1.4265460662       -4.3363498274
 H         1.3824843903       -1.7588393834       -6.3787258375
 H         2.5656966144       -2.6936682342       -7.3709952215
 H         2.4445807005       -2.9019536377       -5.6822338474
 H         1.4521898895       -4.2555023967       -8.8842710219
 H        -0.2304219564       -3.4059175258       -8.6589840130
 H        -0.0703351290       -5.0309712558       -8.2930349275
 H         5.2143438028       -5.4720282392       -1.7024169489
 H         3.7085864849       -6.1842759695       -2.2533946250
 H         4.3820381341       -4.7269780495       -3.0875424206
 H         6.8649213878       -6.4111905098       -5.2430130607
 H         7.0605285163       -5.5500649960       -3.6029006479
 H         5.9427235835       -5.0109340301       -4.8333166377
 H         7.5228751909      -12.2474065730       -2.6737386710
 H         6.8157821752      -12.5549917726       -1.2621493341
 H         8.6192550552      -13.0414479596       -1.4591323157
 H         8.1281022194      -10.2747397138        1.1142812885
 H         9.8112711389      -10.7613158373        0.5253192301
 H         8.6226875750      -11.9769092967        0.6540595284
 H        15.0810672918       -6.9628003518       -3.5332036258
 H        14.2129552869       -8.2034452989       -2.5280878268
 H        14.1639420402       -6.3482910201       -2.2673910003
 H        12.3780115063       -4.9560559728       -3.5765878489
 H        11.7255303483       -5.5337616830       -5.0391537490
 H        13.4970438880       -5.1727118243       -4.8876517417
 H        10.7749284801      -10.0007307312      -10.4032645291
 H        11.3576340545      -11.0231396354       -9.1062187074
 H        12.1320746915       -9.5722338093       -9.6548186656
 H        10.8244712403       -7.1292203524       -9.3511787758
 H         9.6017813198       -7.3052083772       -8.0828258061
 H         9.3489060335       -8.0589616722       -9.7277067760
 Na        8.8694900843       -8.6029077547       -4.7832205354
 Na      -11.4292463558        5.8097259699      -14.5655781696
