232

 C         8.6390314869      -11.2227784748       -8.6489461024
 C         9.2129395582      -10.0371046053       -7.8378534998
 O         8.5453258617       -9.6466149516       -6.9099035855
 C        10.4706386720       -9.2390430516       -8.4995980815
 C        11.3057186780       -8.7054655575       -7.2112811037
 O        10.8511582986       -8.7798735397       -6.1224386499
 C        12.7871548278       -8.4266759546       -7.3643474543
 C        13.3803856490       -7.3578887035       -6.4201242576
 C        13.3833778543       -7.8561026776       -4.9193823952
 O        13.6851983207       -9.0410517268       -4.7394963355
 C        12.9054259673       -6.9235250582       -3.6751061015
 C        11.4471907121       -7.5433393221       -3.2704866491
 O        10.4249485785       -6.9267209362       -3.5244756782
 C        11.4792017185       -8.8779887522       -2.5793362872
 C        10.4002380237       -9.1576732981       -1.4710000048
 C         9.3298238469      -10.2015746327       -2.0726147720
 O         9.1727318899      -10.1746193645       -3.2672234442
 C         8.3527770883      -10.9115772477       -1.1377581583
 C         7.1183551773       -9.9405260285       -0.9032678013
 O         7.2180348792       -9.0389138221       -0.1324510116
 C         5.8445897414      -10.1184036751       -1.7191583872
 C         5.2507951191       -8.6613038433       -1.9703057118
 C         5.9192379908       -7.9486876778       -3.1374828347
 O         6.9139284882       -8.4870613851       -3.6406364738
 C         5.2611565203       -6.6722844356       -3.7457405193
 C         4.3126411601       -7.2230383326       -4.8018829792
 O         4.8695695094       -7.8765201200       -5.6497533372
 C         2.8455472909       -6.8021698962       -4.9213238699
 C         2.6255186240       -5.3301554059       -5.1979903149
 C         1.2597930760       -5.2428087097       -5.9221167316
 O         0.5340372660       -6.1984834940       -5.9641812835
 C         0.8495354592       -3.8779039468       -6.6969619012
 C        -0.5053891452       -3.4088228650       -5.8694360815
 O        -0.3338849368       -2.6004136144       -5.0467975435
 C        -1.8204289384       -4.1783878328       -6.1438026937
 C        -3.1659513006       -3.5655098814       -5.8543524871
 C        -3.2266274447       -2.3419244683       -6.7779412396
 O        -2.7218486862       -2.3303683251       -7.8644913090
 C        -3.9527852491       -1.1409024961       -6.1027500809
 C        -4.2646368801        0.1621861914       -6.9731606678
 O        -4.4266350754        1.2477594382       -6.4160228422
 C        -4.6501189732       -0.0587109530       -8.4436649634
 C        -5.4345775637        1.1835336423       -8.9908457162
 C        -7.0595013264        0.9059341816       -8.7479109088
 O        -7.4157213454       -0.2273287676       -8.6975164323
 C        -8.1066575791        2.0889336702       -8.5438635526
 C        -8.0467430607        3.0631000282       -9.7369736582
 O        -7.2459360395        2.9159054727      -10.6046796226
 C        -9.1013393665        4.3029367536       -9.8539272885
 C        -8.7314304438        5.3962180642      -10.9581226478
 C        -9.1087570535        5.2265513093      -12.4154267272
 O       -10.2646587372        5.0871121126      -12.7032206572
 C        -7.9429147328        5.6309278379      -13.4610018075
 C        -8.2524579749        4.9874587094      -14.8615514694
 O        -9.1963828228        5.5005735090      -15.4615894289
 C        -7.6182895193        3.7818839274      -15.6035332189
 C        -8.6520600356        3.0179217778      -16.5829569321
 C        -9.3538394666        1.9421449495      -15.6395334762
 O        -8.7688318211        1.3717969461      -14.7614996254
 C       -10.8491258861        1.5601735109      -15.8463595216
 C       -11.6135387947        2.3551405952      -14.6972203875
 O       -11.9282226228        3.5349862990      -14.8586233325
 C       -11.9068035267        1.6698224495      -13.3905879987
 C       -12.4498546245        2.6997878095      -12.3801022605
 C       -13.8875940966        3.1476710054      -12.5407489590
 O       -14.6596458595        2.6589938126      -13.2866002298
 C       -14.2318110210        4.6271443293      -11.8456406175
 C       -13.9711310095        5.7946976672      -12.9561165063
 O       -12.8461725878        6.3065143316      -12.8702535568
 C       -15.0507230234        6.1452235562      -14.0384569792
 C       -14.6462352043        5.1228895223      -15.2134879613
 C       -14.1504039694        5.8878251853      -16.4400860586
 O       -13.0956012613        6.5961032294      -16.3506456297
 C       -14.6549378914        5.8748365203      -17.9415325417
 C       -15.6715463155        4.6416213788      -18.1642982561
 O       -15.5471610070        3.4956413042      -17.7061744011
 C       -17.0116723790        4.9304778208      -18.9893372035
 C       -17.2798594979        3.8164396914      -20.0165337594
 C       -16.1151133806        3.7554948455      -21.0022790954
 O       -14.9166669861        3.8308742364      -20.6716479750
 C       -16.5109343073        3.9455153936      -22.5786001483
 C       -16.7772788566        2.4379753030      -23.0748207869
 O       -17.8984032775        2.1329717289      -23.4339366591
 C       -15.6291523441        1.4299863427      -23.0086577103
 C       -17.7132490708        4.8588548562      -22.9044849408
 C       -15.3069159011        4.5411743175      -23.3810162258
 C       -15.4258628874        7.2196231717      -18.1083271533
 C       -13.3642592666        5.6242646918      -18.6260488153
 C       -15.7322656692        4.4730377161      -11.5128261486
 C       -13.3315939813        4.7695487014      -10.5987594006
 C       -11.3697033297        2.1342896811      -17.2212095631
 C       -11.0766194364        0.0500760527      -15.6718300375
 C        -7.7811499712        7.1949977091      -13.5727115175
 C        -6.6331032154        5.0402039059      -12.9782395976
 C        -9.4755534621        1.3893223355       -8.4509615212
 C        -7.5158689792        2.9016549523       -7.2619808176
 C        -5.2797850717       -1.6421391940       -5.5440468706
 C        -2.9645847977       -0.5979720919       -4.9652168370
 C         1.8141635292       -2.7163891212       -6.6841709862
 C         0.5570372317       -4.3423652883       -8.1395980301
 C         4.5135212036       -5.9445840377       -2.5454333641
 C         6.3715614816       -5.8138088607       -4.3602813107
 C         7.8319717772      -12.2157511178       -1.9722566736
 C         8.9828379641      -11.3724775575        0.1968848453
 C        13.7999795604       -7.2364847636       -2.3892717582
 C        12.8937405334       -5.4364177349       -4.1950569366
 C        11.4595651133      -10.1361549275       -9.2148118549
 C         9.8107300435       -8.0768373684       -9.2553622694
 H         8.6364468451      -11.0161098993       -9.6857680344
 H         7.6369361501      -11.3942509526       -8.2846708032
 H         9.1706694590      -12.1505672329       -8.4346707626
 H        12.8747058265       -8.1091517346       -8.4221528382
 H        13.2966832159       -9.3562647782       -7.2088632048
 H        12.7055763288       -6.5979808403       -6.6617976200
 H        14.3236677724       -7.0397175295       -6.7685668885
 H        12.4325296098       -9.2460324912       -2.2946862046
 H        11.1918316285       -9.5007270790       -3.5133641773
 H         9.7306787818       -8.3311420741       -1.3273962081
 H        10.8117110442       -9.3199426815       -0.5043015960
 H         5.0842699280      -10.6168927669       -1.1279692471
 H         6.0178727240      -10.5992152369       -2.6757130092
 H         5.3993391849       -7.9788555939       -1.1424635912
 H         4.1817532656       -8.5416261134       -2.2474120465
 H         2.1857396487       -7.1898576134       -4.1656108700
 H         2.5064946673       -7.3120177214       -5.8740062577
 H         3.4746460899       -4.9152670982       -5.8285222772
 H         2.6270685709       -4.7918236384       -4.2092746472
 H        -1.6478974268       -5.0125556392       -5.4913460730
 H        -1.9260450800       -4.6820976680       -7.1085351505
 H        -3.1179174339       -3.2026905692       -4.8199885034
 H        -4.0387424541       -4.2534717949       -5.9424910667
 H        -5.2472505023       -0.8550380224       -8.3949479741
 H        -3.7820903007       -0.2218632528       -9.1167376375
 H        -5.3277105173        1.0584626957      -10.0331330371
 H        -5.0841347203        2.0922809152       -8.4567762533
 H        -9.2233241272        4.9601422033       -8.9280644901
 H       -10.2019281216        4.0489181002      -10.0451886031
 H        -7.7097055841        5.5408088106      -10.8734923097
 H        -9.1451901592        6.3742036369      -10.7827971215
 H        -7.2235099710        3.1372853705      -14.8706249465
 H        -6.7365227491        4.1305731544      -16.1182144297
 H        -8.0972501445        2.5408095786      -17.4019720997
 H        -9.2825881870        3.7245654787      -16.9976098723
 H       -10.8685303535        1.2831072714      -13.1066992675
 H       -12.6552342157        0.8728147613      -13.5271429563
 H       -11.7219396537        3.6382243513      -12.5337512349
 H       -12.2061708505        2.4581060115      -11.3056949357
 H       -14.8928631378        7.2019242069      -14.4250402113
 H       -16.0820142428        5.9136523078      -13.7122841930
 H       -15.5517515414        4.6238312281      -15.4894272573
 H       -13.9934629800        4.3115806406      -14.9011139806
 H       -17.2137616810        5.9362102063      -19.4076414044
 H       -17.7997150304        4.9810414706      -18.2087067535
 H       -18.2423789222        4.0102784244      -20.5110000845
 H       -17.4278667168        2.8464304533      -19.5089234137
 H       -16.0470224161        0.4951168079      -23.4680609341
 H       -15.3164835363        1.3495669057      -22.0012333485
 H       -14.8516102238        1.8737989634      -23.6480935008
 H       -17.3814720089        5.9416161100      -22.7163639970
 H       -18.5590882359        4.6437360701      -22.2677183510
 H       -17.8627127055        4.7342965932      -23.9843300799
 H       -15.5142870342        4.7613315338      -24.4489018109
 H       -14.5123418762        3.9041205366      -23.4339624595
 H       -14.9702260217        5.5274916662      -22.9326932529
 H       -16.3179079776        7.3738118909      -17.5503270987
 H       -15.7248895511        7.3128091985      -19.1759061724
 H       -14.8613953466        8.0689813633      -17.7843922689
 H       -12.7341573691        6.4983896977      -18.5990126474
 H       -13.6145456400        5.4809583034      -19.6548739086
 H       -12.7831448743        4.7934653105      -18.1730848874
 H       -15.8470236815        3.5024757478      -11.0525370598
 H       -16.4677643054        4.5323285180      -12.3114508781
 H       -16.1381950688        5.1850035957      -10.8772563357
 H       -13.5820995027        5.6132121135      -10.0006228532
 H       -12.3581519455        4.9866282831      -11.0801324423
 H       -13.2686544884        3.8467614793      -10.0854954172
 H       -12.3600689091        1.7906704749      -17.5099621727
 H       -10.6201221887        1.6996840915      -18.0179858407
 H       -11.3130959025        3.2037632379      -17.2349283343
 H       -10.5278761009       -0.5861282023      -16.3485338153
 H       -12.1389381135       -0.0504568448      -15.7978868184
 H       -10.7097781848       -0.3791054221      -14.7184231201
 H        -8.5213571000        7.6398783113      -12.9181885458
 H        -8.1090462566        7.4665799322      -14.6262161059
 H        -6.7179184965        7.5727881439      -13.5265155631
 H        -6.0619655278        5.6273591896      -12.2726114321
 H        -5.9645123425        5.1199308895      -13.8696377739
 H        -6.6033403500        3.9587533392      -12.6058786984
 H       -10.3919509939        2.1115604683       -8.2368745191
 H        -9.3779113122        0.5419389612       -7.7922878033
 H        -9.5877321496        0.8634907162       -9.4219136013
 H        -8.2240684379        3.5921635700       -6.8507771512
 H        -6.7906673240        3.5659018031       -7.6910741437
 H        -7.2007762413        2.2382746134       -6.3621198879
 H        -6.1610262932       -1.5074212385       -6.2276396801
 H        -5.6048848222       -0.9823245188       -4.7701704781
 H        -5.2817461379       -2.6229310181       -5.1351375742
 H        -3.1876973573        0.4890047122       -4.6418658961
 H        -1.9704338619       -0.5370814003       -5.3535233762
 H        -3.0363589543       -1.2247109295       -4.1045408598
 H         1.2265302942       -1.7360505548       -6.7482690445
 H         2.5452527549       -2.8750671259       -7.4664390983
 H         2.3791661891       -2.5493496436       -5.7767558254
 H         1.4596199641       -4.3758591660       -8.7698184477
 H        -0.0279313102       -3.5463947769       -8.6557419832
 H        -0.0645953497       -5.1901931843       -8.1377164954
 H         5.2304443678       -5.7225689692       -1.7812734234
 H         3.6619772870       -6.4338007596       -2.1491291496
 H         4.1015783094       -4.9415352332       -2.8276185138
 H         6.8870966298       -6.4931554224       -4.9766516828
 H         6.8542981780       -5.4671614556       -3.4503775398
 H         5.8962349521       -4.9461705206       -4.9030634318
 H         7.5223862654      -11.9287604033       -3.0130377116
 H         6.9827787393      -12.7264292289       -1.4544643036
 H         8.6869829735      -12.8454541757       -2.0874366911
 H         9.1842888740      -10.5421009771        0.8638384520
 H         9.9208168833      -11.7656354919       -0.1262802568
 H         8.4216334279      -12.1481472950        0.6744518394
 H        14.6235841622       -6.5190974501       -2.2990102734
 H        14.1472826617       -8.2422063649       -2.5712143750
 H        13.2951093131       -7.0963972833       -1.4653401310
 H        12.6551916786       -4.7669829255       -3.3624446529
 H        12.1395546817       -5.2863581782       -4.9349562795
 H        13.8507851967       -5.1239679659       -4.6917343565
 H        11.0148485922      -10.9687256599       -9.8208275457
 H        12.1765151699      -10.6476416817       -8.5053259737
 H        12.0486287503       -9.5180937077       -9.9254614146
 H        10.6446391127       -7.4579283051       -9.6060973280
 H         9.2260784927       -7.4731490685       -8.5579510098
 H         9.2784925574       -8.4722598854      -10.0973957346
 Na        9.0201280384       -8.1674184367       -4.6817209694
 Na      -11.5547206751        5.7968599466      -14.6700568086
