232

 C         8.6046450289      -11.1989180443       -8.4412343466
 C         9.0992122097       -9.9728453286       -7.7946253707
 O         8.4668876282       -9.5579347382       -6.8407977718
 C        10.4394451200       -9.3286500283       -8.2803137813
 C        11.3144825299       -8.8282706366       -7.0681911533
 O        10.9794607397       -8.8675230194       -5.8712556810
 C        12.7388534935       -8.2847768869       -7.3590080059
 C        13.0333068400       -7.2281217910       -6.1767534734
 C        13.3811677269       -7.7567258990       -4.8569013024
 O        13.7864218988       -8.8620346840       -4.6460651617
 C        12.9357510807       -6.8135960013       -3.5192631580
 C        11.5723190035       -7.5173383798       -3.2471366036
 O        10.5244479110       -7.0464049364       -3.6828621403
 C        11.5794625334       -9.0119599448       -2.7390024317
 C        10.5197718359       -9.3388470434       -1.7189453682
 C         9.4574438890      -10.1664976481       -2.3238535551
 O         9.0939482158      -10.1337846648       -3.5021856245
 C         8.5775049199      -11.0357960088       -1.3440341132
 C         7.3952243647      -10.0230265957       -0.9112156874
 O         7.6200029007       -9.2475478890        0.0174986756
 C         6.0182194913      -10.0501425330       -1.6241476976
 C         5.3690158562       -8.7276974311       -1.9263147216
 C         5.9246678142       -7.9691347066       -3.1729111605
 O         6.8434529038       -8.4420710216       -3.7641306096
 C         5.2729919871       -6.6434851113       -3.8235607437
 C         4.4393537047       -7.1225989408       -5.0463633784
 O         5.0078811863       -7.5966436703       -6.0115572644
 C         2.9805805304       -6.8580231469       -4.9027872731
 C         2.6203180588       -5.3540118946       -5.2822243441
 C         1.2411126980       -5.3610921861       -6.0580550032
 O         0.4816022876       -6.3110778889       -6.1255878921
 C         0.8890516556       -3.9707571116       -6.7016248995
 C        -0.5161836262       -3.5107235799       -5.8583619068
 O        -0.5100557239       -2.5397626551       -5.0721873500
 C        -1.7149023682       -4.3527045751       -6.1094706452
 C        -2.9992822846       -3.4948178175       -5.9063343759
 C        -3.2341000100       -2.1934999556       -6.7101519867
 O        -2.9904624614       -2.0896691763       -7.9030321661
 C        -3.9353259997       -0.9986360871       -5.9599818147
 C        -4.3117643965        0.2789366592       -6.9365269998
 O        -4.3637777417        1.3648378807       -6.4663497377
 C        -4.7326910439        0.0470298887       -8.4153612886
 C        -5.6423106430        1.1163218015       -9.0751588298
 C        -7.1081328634        0.7295176940       -8.8130428072
 O        -7.5599352450       -0.3685858853       -8.5443127132
 C        -8.0518788462        2.1029060745       -8.7309679428
 C        -8.0244063515        3.0377329767      -10.0495493474
 O        -7.1506667605        2.8895429876      -10.9277658802
 C        -9.0920076908        4.1424427127      -10.0693242414
 C        -8.6313329852        5.3969087190      -10.8422085983
 C        -8.9191058836        5.3159990066      -12.3045251842
 O       -10.0800854037        5.1917883833      -12.6718459272
 C        -7.8923753858        5.4978120727      -13.3583536371
 C        -8.4499059007        5.0010572898      -14.7363187576
 O        -9.3090900653        5.5596290421      -15.3604770525
 C        -7.8232778309        3.7473896553      -15.3756641836
 C        -8.7083415535        2.9585115409      -16.2929990017
 C        -9.5168635539        1.8807082487      -15.5352024615
 O        -9.1128220699        1.2851215649      -14.5286318606
 C       -11.0125325444        1.5497020377      -15.9649661132
 C       -11.6007331554        2.4500019413      -14.8261403844
 O       -11.7134891289        3.6550233490      -14.9753670640
 C       -11.8576680126        1.7193837482      -13.4483512492
 C       -12.4147801679        2.6336486949      -12.3470337538
 C       -13.8567286111        3.2007297013      -12.5538459384
 O       -14.5473465243        2.6699189910      -13.4251732460
 C       -14.1971275682        4.6026550177      -11.8162691043
 C       -13.8881675262        5.7949233772      -12.8832506669
 O       -12.8408194112        6.3780924139      -12.7540517213
 C       -14.9864733712        6.1743087551      -13.9558815754
 C       -15.2660419363        5.4003347616      -15.2736137895
 C       -14.1452859058        5.7224093330      -16.3765207969
 O       -13.1970475693        6.4145427746      -16.2002809729
 C       -14.6856488045        5.7520601398      -17.8991335215
 C       -15.8275060491        4.5853960775      -18.0962622172
 O       -15.8232676342        3.6728776668      -17.3356088051
 C       -17.0395903620        4.9391006771      -18.9611034507
 C       -17.3536584618        3.9208854880      -20.0432089585
 C       -16.1873720605        3.8944454626      -21.0858114753
 O       -15.0991223965        3.8635024039      -20.6085604408
 C       -16.4069976984        4.0071712109      -22.6608819458
 C       -16.7343351251        2.4499074918      -23.0036922702
 O       -17.8364933126        2.1280592958      -23.3150338632
 C       -15.5606201963        1.4126962804      -22.9740806643
 C       -17.7294335271        4.7860666885      -22.9531279538
 C       -15.0292338869        4.4994341921      -23.1959926681
 C       -15.1167431421        7.1817255901      -18.2597092085
 C       -13.4843948902        5.4392190829      -19.0194820100
 C       -15.6564631010        4.5042819900      -11.3154865343
 C       -13.3166188299        4.8637213017      -10.6076464067
 C       -11.5604783711        2.0316923528      -17.3242459618
 C       -11.3521003603        0.0145410598      -15.9158600143
 C        -7.7401658626        7.0521643729      -13.4921639003
 C        -6.4942788388        4.8741906912      -13.0477806943
 C        -9.5317444541        1.6452497214       -8.4837096855
 C        -7.7293491052        2.8337109150       -7.4674032248
 C        -5.3910584206       -1.3678887882       -5.4453855379
 C        -3.0449097086       -0.6157271283       -4.7298243926
 C         1.9400846676       -2.8695970965       -6.5319151417
 C         0.4660391888       -4.2529750223       -8.1499763789
 C         4.4971388967       -5.9468673447       -2.6609253516
 C         6.4080445518       -5.5830450309       -4.2628811406
 C         8.1693470620      -12.2535046258       -2.0511911334
 C         9.1809561996      -11.4082091516        0.0725934480
 C        14.0874155090       -7.1522733303       -2.4589289778
 C        12.6643171140       -5.3119652516       -3.7206145903
 C        11.2560133116      -10.3905349541       -9.2416774248
 C        10.1009976376       -8.1455336865       -9.2510382260
 H         8.5571271363      -11.1750635718       -9.5807651972
 H         7.5754234826      -11.3706339449       -8.0265327076
 H         9.2613773686      -12.0299477271       -8.1299766789
 H        12.7839631590       -7.8555401716       -8.3521506095
 H        13.4515484264       -9.0844413099       -7.2009398879
 H        12.1851591795       -6.4898827037       -6.1669320548
 H        13.8712978889       -6.5711785425       -6.5463300466
 H        12.5966386788       -9.2186527674       -2.3013035641
 H        11.4748581877       -9.6721410560       -3.5389472399
 H        10.0466308073       -8.4536768522       -1.2572210770
 H        10.8627675221       -9.9319136460       -0.8380802105
 H         5.3331201536      -10.3839454241       -0.8441546190
 H         5.9167820606      -10.6843184525       -2.5281653466
 H         5.3928108272       -8.0207137667       -1.0868123676
 H         4.3435729626       -8.8432277316       -2.2266104007
 H         2.6802073741       -7.1845947377       -3.8826819415
 H         2.3184842881       -7.3962577832       -5.5238313311
 H         3.3545594971       -4.9636744581       -5.9626043769
 H         2.5339645010       -4.6921669491       -4.4290873647
 H        -1.7818670193       -5.2883427797       -5.3945500257
 H        -1.7662241875       -4.8101545241       -7.1170190290
 H        -3.0927018400       -3.2609801127       -4.8208117281
 H        -3.8759880885       -4.1028474506       -6.1502894423
 H        -5.3089459456       -1.0274193188       -8.4099252554
 H        -3.8122757438        0.0653511030       -9.0110071358
 H        -5.4612883032        1.0338885572      -10.1625260384
 H        -5.4885084498        2.0227657218       -8.5524611992
 H        -9.4181626632        4.4847700793       -9.1278716884
 H        -9.9742254406        3.8270850402      -10.5168382730
 H        -7.5042073541        5.4933292472      -10.6196906887
 H        -9.1241545676        6.3427464914      -10.4530364452
 H        -7.5257649481        3.0334157391      -14.5404903837
 H        -6.8772684842        3.9732403326      -15.8762378379
 H        -7.9766562415        2.4965708205      -16.9814311896
 H        -9.4399826741        3.5580555846      -16.9669317242
 H       -10.9002434442        1.3606507926      -13.1563046549
 H       -12.5821606348        0.9480517955      -13.5480076256
 H       -11.7583338107        3.4253936632      -12.2729048051
 H       -12.2628708022        2.1520132951      -11.3897333434
 H       -14.7831675982        7.1963926879      -14.1743932200
 H       -15.9213128323        6.1172457274      -13.3937321997
 H       -16.2615652978        5.5707798285      -15.7431143401
 H       -15.2924291082        4.3701078908      -14.9159704668
 H       -16.8973442113        5.9070770308      -19.4569468365
 H       -17.8848976710        5.2445435079      -18.3486787570
 H       -18.3659965537        4.0767049007      -20.4442645380
 H       -17.4085321274        2.9241283848      -19.5610400667
 H       -15.9865017366        0.5125716605      -23.4601019210
 H       -15.3685634290        1.2487234501      -21.9285035939
 H       -14.7608585154        1.7069592421      -23.5904764650
 H       -17.7529072282        5.6769036839      -22.3608791734
 H       -18.5861487999        4.0848608875      -22.7050204105
 H       -17.7135951317        5.0776992462      -24.0294776746
 H       -14.9791135717        4.3808000182      -24.3135554789
 H       -14.0060147920        3.9883507334      -22.9186834054
 H       -14.9913651118        5.5765825461      -23.0237002373
 H       -16.1171560638        7.4583125376      -17.8813260876
 H       -15.1131635552        7.2546407211      -19.3481879906
 H       -14.4935453043        8.0556737522      -17.9089868481
 H       -12.5109359952        5.8357297781      -18.7708953251
 H       -13.8226308125        5.9595131516      -19.9362639239
 H       -13.3863257954        4.4037150088      -19.1979679333
 H       -15.7706602113        3.7523638276      -10.5187678320
 H       -16.2865426951        4.1246205056      -12.1254742061
 H       -16.2211331966        5.4601344734      -11.0719728834
 H       -13.8287402005        5.5335785983       -9.9098011190
 H       -12.3594481012        5.2220727581      -10.8636727425
 H       -13.2384956197        3.8984904730       -9.9984972389
 H       -12.6394945784        1.8915655644      -17.2922684761
 H       -11.3040253322        1.3727545220      -18.1227756688
 H       -11.3746292761        3.1735034350      -17.4460879681
 H       -11.0595277100       -0.3975402993      -16.8851287922
 H       -12.3753434795       -0.2764342935      -15.7038071212
 H       -10.6770922500       -0.4769207246      -15.2331686287
 H        -7.5650136417        7.4938502257      -12.5068653295
 H        -8.6048080020        7.5249157296      -13.9425959104
 H        -6.9685350831        7.1416043692      -14.1878742441
 H        -5.9694658817        5.5223642661      -12.3558757408
 H        -5.8390592031        4.6814163387      -13.8845054406
 H        -6.6093925797        3.9981859351      -12.4734110342
 H       -10.1461033756        2.4557071546       -8.8251551703
 H        -9.6300276078        1.4241934988       -7.4221169873
 H        -9.8713784470        0.7586165105       -8.9912517770
 H        -8.4437308211        3.6401862059       -7.3056865535
 H        -6.7747980230        3.3657376485       -7.4736514611
 H        -7.8343817863        2.1689563884       -6.7187869076
 H        -5.9241970728       -1.9536490132       -6.1627909685
 H        -6.0873275830       -0.5169086333       -5.3722047040
 H        -5.4241938390       -1.8756038726       -4.4365559703
 H        -3.3778556622        0.3740703898       -4.5605737778
 H        -1.9750142926       -0.5168132454       -4.8690734386
 H        -3.3164016375       -1.2355056240       -3.7997166577
 H         1.8333631902       -2.1498359872       -7.2529386863
 H         2.9684553395       -3.2425727507       -6.5689720308
 H         1.8566926025       -2.3233862821       -5.6043411430
 H         1.4456158816       -4.3223778226       -8.6477762027
 H         0.0793606613       -3.4167985383       -8.7200612390
 H        -0.1244182945       -5.2188459984       -8.3321764243
 H         5.2437024116       -5.6477701612       -1.8746327165
 H         3.6880064069       -6.5465135190       -2.2061311027
 H         4.0058426736       -5.0411484671       -2.9001397745
 H         6.7153606556       -6.0608373662       -5.2096656424
 H         7.2497933058       -5.6378214418       -3.5802099005
 H         5.9783113692       -4.6457007974       -4.2340803111
 H         8.7753324566      -12.2469538421       -2.9600718136
 H         7.0996559278      -12.3104086408       -2.2053196496
 H         8.4619821321      -13.1584381962       -1.4969596892
 H         9.8217249876      -10.5840353173        0.3868544517
 H         9.8198272319      -12.3148247802        0.0094577176
 H         8.3366003437      -11.4887778482        0.7812780496
 H        14.7834332795       -6.3169032748       -2.6138425885
 H        14.5963118866       -8.0917169401       -2.6741284695
 H        13.7457903092       -7.0708896825       -1.3709616546
 H        12.6379683709       -4.7416671038       -2.8001825250
 H        11.7769373543       -5.1532419408       -4.3573294485
 H        13.4109557064       -4.9423756545       -4.3707634137
 H        10.5339242053      -10.9824984197       -9.8106024395
 H        11.8867772903      -11.1141059626       -8.7287633446
 H        11.9126704066       -9.8453545583       -9.9415534128
 H        11.0286231858       -7.7929156572       -9.7060515566
 H         9.5219611485       -7.3998602741       -8.7051713701
 H         9.4409063966       -8.6065313201      -10.0300567472
 Na        8.8602651509       -8.4486945529       -4.9190007854
 Na      -11.4672994770        5.9415663616      -14.7351106274
