232

 C       -19.4231822001       -8.6017578416       -1.1920797973
 C       -18.5055798785       -9.8523211873       -1.3663656190
 O       -17.9017173618      -10.0238491315       -2.4029360775
 C       -18.6900876562      -10.9888004256       -0.2112402602
 C       -17.2820825544      -11.1565288345        0.4260714702
 O       -16.4832843963      -11.9302518451       -0.0551142886
 C       -16.7916482070      -10.2475967151        1.5623188452
 C       -15.2835720933       -9.8889676851        1.4493962801
 C       -15.0018773096       -9.0198523417        0.2037799921
 O       -15.8724569633       -8.4426921228       -0.3561285560
 C       -13.6043045007       -9.0624013132       -0.4469070876
 C       -13.9578102514       -9.9472680109       -1.7313311164
 O       -14.3640429509      -11.0436070460       -1.4508206443
 C       -13.9451431407       -9.4595350845       -3.1459332513
 C       -13.5252643397      -10.5835744302       -4.1906388322
 C       -14.5265536992      -10.6770787925       -5.3173459084
 O       -15.6870725717      -11.0051376687       -4.9716897671
 C       -14.1639848381      -10.3352415458       -6.7720982876
 C       -13.6014941449       -8.9011527488       -6.7264063997
 O       -12.7000480863       -8.6897029677       -5.9750038414
 C       -14.2119696793       -7.7988201267       -7.6936501112
 C       -13.2460338976       -6.5767361586       -7.8850597467
 C       -14.0186973671       -5.5624746163       -8.7865359099
 O       -15.0235502981       -4.9980561051       -8.3957065197
 C       -13.4755120487       -5.4261113707      -10.2404166246
 C       -12.0386404607       -4.6502051157      -10.2280525543
 O       -11.1100667885       -5.1791303945       -9.6226035498
 C       -11.8422820989       -3.2704992001      -10.8165322174
 C       -10.3940471149       -2.7979021243      -10.4547443410
 C       -10.3231024490       -1.2991927906      -10.6185680345
 O       -11.0667569526       -0.7121822539      -11.3299701825
 C        -9.0961698843       -0.5599271902       -9.9490023038
 C        -7.7968886489       -1.0482174019      -10.5490000656
 O        -7.6956210036       -2.1284588745      -11.0470949540
 C        -6.5491810744       -0.0740875315      -10.4695969082
 C        -5.5827564703       -0.0918627869      -11.6891302858
 C        -4.4793467561        0.9411975715      -11.5522429383
 O        -4.4774014394        1.8582632948      -10.7181465022
 C        -3.1974709608        0.5917667926      -12.4455798946
 C        -2.2817482088       -0.2903826262      -11.4091683168
 O        -2.1562131417       -1.4543299303      -11.6400094870
 C        -1.9085215563        0.3141642819      -10.0197500237
 C        -0.8053032644       -0.5561619246       -9.2039888872
 C        -0.4421232503        0.1657338797       -7.7633954076
 O        -1.2387485995        0.7368761764       -7.1516440504
 C         0.9933388065       -0.1563642432       -7.2259598984
 C         2.1307360269        0.5705625062       -8.0132973293
 O         2.6390939578        0.0572198554       -8.9711851782
 C         2.4908097278        2.0139052341       -7.6028830903
 C         3.7653973043        2.6777677638       -8.2896199148
 C         3.5960093706        3.4704597370       -9.5560198832
 O         2.6137016196        3.3884537307      -10.2438901321
 C         4.8486083089        4.5092982359       -9.8861286127
 C         4.9765078721        4.5169280940      -11.4194875740
 O         5.8898694011        3.9144857327      -11.9510100049
 C         3.8384161155        5.1414453772      -12.2782052436
 C         4.2844662251        6.5814559990      -12.6035369500
 C         4.3212120375        6.9263073697      -14.2449553937
 O         3.8739326645        6.0310112420      -14.8927889472
 C         4.7358972064        8.4308937117      -14.6353502540
 C         5.7759359244        8.2591399057      -15.8190270694
 O         5.6552670428        8.6619317733      -16.9651701470
 C         7.1556960300        7.5417415388      -15.5194421113
 C         7.7942961054        7.0010906614      -16.8217122009
 C         7.5243592695        5.5272261848      -16.9889641219
 O         7.2469621990        4.8212082665      -16.0361226903
 C         7.8296414998        4.7220178823      -18.3589000480
 C         9.3303265818        4.2222798153      -18.3359414577
 O        10.1628879180        4.7594923650      -17.6446182224
 C         9.6868428909        2.9984961409      -19.2919824465
 C        10.6045466076        2.0333377841      -18.5654642822
 C        10.0656131873        0.7723899440      -17.8783974931
 O         8.8700919439        0.5374069008      -17.7939850158
 C        11.0980707967       -0.1041368284      -17.1683562032
 C        10.5688113152       -0.3926833747      -15.7029293562
 O        11.3122602317       -0.1112584319      -14.7661341504
 C         9.2136778464       -1.1094190348      -15.4444796299
 C         8.4872038173       -0.4213924837      -14.2515302891
 C         7.3650917728        0.5690516953      -14.5690770200
 O         7.6868862734        1.7570481901      -14.4891925353
 C         5.9080104455        0.2739765745      -14.8766623064
 C         5.3415295364        0.9848953354      -16.1508583515
 O         4.8172850044        2.1056623642      -15.9536194983
 C         5.5524566920        0.3922683505      -17.4566014040
 C         5.5813934839       -1.2970079681      -15.0753366183
 C         5.0317484869        0.6999080647      -13.5833319072
 C        11.0439397579       -1.5151684532      -17.8052467788
 C        12.5160806207        0.4942807447      -17.1844034079
 C         6.8741890290        3.4808671359      -18.4355172702
 C         7.5891228587        5.6482815572      -19.6236998778
 C         3.4388374866        9.1864846270      -15.1966890043
 C         5.5249820205        9.1581807781      -13.5459547963
 C         4.3940386669        5.8128134620       -9.3267130744
 C         6.1497731575        4.0669369575       -9.3152453190
 C         1.0152922786        0.2409287221       -5.6882535595
 C         1.3206110820       -1.6972751944       -7.4041184656
 C        -3.4517723621       -0.2944517383      -13.6725360972
 C        -2.3810142399        1.8229734465      -12.6307177910
 C        -9.3349980005        0.9015217411      -10.3275967170
 C        -9.1208508240       -0.6766848823       -8.4168548724
 C       -13.2945961324       -6.7828898183      -10.8653621942
 C       -14.5516375440       -4.5366106242      -10.9801050216
 C       -13.1423777442      -11.1774828958       -7.5515960375
 C       -15.4843363221      -10.2345090157       -7.5761773506
 C       -13.1359920819       -7.6212684615       -0.9534454587
 C       -12.4398868533       -9.7454786135        0.3968181076
 C       -19.7023926917      -10.5866649120        0.8323491423
 C       -19.0735719592      -12.2953093106       -0.8993621701
 H       -18.8853375086       -7.9890712706       -0.5157414451
 H       -20.4356178041       -8.8599352592       -0.8279826482
 H       -19.4438443080       -8.0742477191       -2.1597778758
 H       -17.0939317946      -10.5657334553        2.5592303598
 H       -17.3930464411       -9.3675936229        1.3059719212
 H       -14.6832834364      -10.7767693245        1.2899145743
 H       -14.9399987887       -9.4876272285        2.4474871444
 H       -13.1639499006       -8.6502875738       -3.2860312223
 H       -14.9146232114       -9.0795742460       -3.4903632001
 H       -13.6082194384      -11.4892007411       -3.7637459358
 H       -12.5234780041      -10.3504611196       -4.5383035452
 H       -15.1001001024       -7.4777793393       -7.1847357025
 H       -14.5859918888       -8.2333081742       -8.6128258763
 H       -12.2744813815       -6.8608707800       -8.2960915045
 H       -13.0297060287       -6.1120061688       -6.8718360844
 H       -12.6439814303       -2.6303692689      -10.5511528850
 H       -12.1040652980       -3.2626098859      -11.8808518425
 H        -9.6648867725       -3.2915255552      -11.0984362642
 H       -10.1141912054       -3.1697052421       -9.4619300725
 H        -6.0649880403       -0.3776994923       -9.5163198935
 H        -6.8780768700        0.9249165839      -10.3248292593
 H        -6.2653069601        0.0501223639      -12.4623305947
 H        -5.1623305980       -1.1444246280      -11.8250374518
 H        -2.8085920251        0.3382125773       -9.4456533622
 H        -1.5477967336        1.3665827573       -9.8506396151
 H         0.0236175720       -0.7226220210       -9.8137723129
 H        -1.1918706743       -1.5721964930       -8.8804933494
 H         2.4170589152        2.2447555447       -6.5585039449
 H         1.5320994460        2.6604354236       -7.8481774904
 H         4.5762775317        1.9499723880       -8.4838984255
 H         4.2625091340        3.2160553357       -7.4844986986
 H         2.9161921734        4.9638451946      -11.6967903485
 H         3.7291172804        4.6361465277      -13.2083946787
 H         5.2787752946        6.7483978037      -12.1770306108
 H         3.6299099260        7.3420630978      -12.2111444163
 H         7.1910975203        6.7916995391      -14.6875733193
 H         7.6852502139        8.4134558413      -15.1548075193
 H         8.9183887701        6.9918024027      -16.6618564379
 H         7.6054969919        7.5953595622      -17.7771026840
 H        10.2214832258        3.3107277804      -20.1898079108
 H         8.7975272463        2.3918139132      -19.6094210371
 H        11.1331506762        2.5917393928      -17.7643314969
 H        11.3642885112        1.5963208851      -19.3071315327
 H         9.3443903074       -2.1796032320      -15.3310253277
 H         8.6664551532       -1.1653352653      -16.3763436111
 H         9.2015589253        0.3176066005      -13.7607474791
 H         8.0515393791       -1.0658605945      -13.5388035840
 H         6.5164051327       -0.0410224396      -17.7067252386
 H         5.3156582645        0.9779822408      -18.2754360267
 H         4.7916588529       -0.4318405373      -17.4136188928
 H         4.5485839734       -1.6197275672      -15.3363434633
 H         5.8172397788       -1.8449768258      -14.2198527021
 H         6.2246198614       -1.6882869872      -15.8697002336
 H         4.0528685279        0.5648268057      -13.8249368095
 H         5.2927421727        1.6814685593      -13.2393000669
 H         5.3583090125       -0.0157409293      -12.9107370816
 H        11.6328838131       -1.7306881335      -18.7003782635
 H        10.0447804146       -1.7854169519      -18.0834799682
 H        11.3232942269       -2.3263720685      -17.0941460175
 H        13.0349847794        0.4606695832      -18.1305638466
 H        13.1520301201       -0.2502434235      -16.6864927200
 H        12.6073354164        1.4037710950      -16.6093733684
 H         5.8880925687        3.7803586111      -18.8986691827
 H         6.8141429059        3.1254702394      -17.4347037570
 H         7.1764804869        2.5983005558      -18.9897506662
 H         8.4163286915        6.3007080656      -19.5981756775
 H         6.5640055437        6.2319452746      -19.5182725559
 H         7.6602032994        4.9917866261      -20.4923092200
 H         2.5835618278        8.9176721769      -14.6161481211
 H         3.1785190237        8.8823813312      -16.2505227987
 H         3.6980906868       10.2186778629      -15.1035477216
 H         5.9369091613       10.1240462534      -13.8268917835
 H         6.4089079616        8.5685290534      -13.2574219338
 H         4.9308549058        9.4323636684      -12.6270419293
 H         4.6704638505        5.8771371519       -8.2214789527
 H         3.3544569394        5.9294650240       -9.4078522105
 H         4.9492182392        6.6447474697       -9.8144179327
 H         6.8336320860        4.8965473210       -9.2297561559
 H         6.5094599436        3.1482743039       -9.8464277403
 H         6.0442033221        3.7025629900       -8.3127458255
 H         0.8242289467        1.3393948470       -5.5687843279
 H         2.0443686121       -0.0203814856       -5.1919583690
 H         0.0908623217       -0.2607716638       -5.2122204032
 H         0.6782166831       -2.4743757774       -6.9203632457
 H         2.2938063393       -1.6917204998       -6.8978906098
 H         1.2738509357       -1.9420289048       -8.4609902749
 H        -3.7870342932       -1.2620813072      -13.3848393128
 H        -2.5915286461       -0.3534808985      -14.2974963621
 H        -4.2682874544        0.0622164831      -14.2937559603
 H        -1.5415503572        1.5165047143      -13.1788703976
 H        -2.0262614429        2.2327212727      -11.7331277683
 H        -2.8500435443        2.5682924925      -13.2751024648
 H       -10.3226838190        1.0771460657      -10.1037328372
 H        -9.3836322210        0.9792527389      -11.4352869553
 H        -8.7857047056        1.7440275819       -9.9090745343
 H       -10.1999347192       -0.6249895982       -8.3304280618
 H        -8.4914864375        0.0499875354       -7.8821495168
 H        -8.7548326121       -1.6731351260       -8.1803663154
 H       -13.4329845024       -6.7258901276      -11.9349076509
 H       -14.0862029885       -7.3731299835      -10.4813920427
 H       -12.3799308871       -7.3610415744      -10.8159303179
 H       -15.4916189580       -4.8527274993      -10.5204465460
 H       -14.6171616967       -4.4877525555      -12.0847903913
 H       -14.4002984428       -3.5684909641      -10.5448111295
 H       -12.1823900102      -10.7335996734       -7.4285177180
 H       -13.3811234391      -11.2108489822       -8.5864304896
 H       -13.1610311981      -12.2215101115       -7.2075215477
 H       -16.2464129465       -9.6297937677       -7.1827251979
 H       -16.0391216129      -11.1360159651       -7.6808655209
 H       -15.4479057677       -9.8952953101       -8.6422576487
 H       -13.8564001760       -7.1271422855       -1.6820733181
 H       -12.1498060086       -7.6866784503       -1.4079771896
 H       -13.0687025186       -6.9633531617       -0.0894455663
 H       -12.7746361338      -10.8240469219        0.4493951136
 H       -12.4652691330       -9.1475702745        1.3562684474
 H       -11.6004502809       -9.7276331350       -0.1944628983
 H       -19.2298935372       -9.8451347107        1.4649643183
 H       -19.8695468597      -11.4786610745        1.5094544705
 H       -20.6796630736      -10.1622373483        0.3429889957
 H       -19.8662379099      -12.6689156697       -0.2977347218
 H       -18.2603242096      -13.0627126566       -1.0475665213
 H       -19.5516488523      -12.0600744981       -1.8860399965
 Na      -16.3219140271      -11.4330348042       -2.7229916015
 Na        5.7594265189        3.7542628017      -14.3527675563
