232

 C         8.5269293202      -11.3313104368       -8.0810655606
 C         9.1616119918      -10.0115229100       -7.6645847940
 O         8.6836262620       -9.2578401584       -6.8169747635
 C        10.5924162864       -9.4322686971       -8.2707688461
 C        11.4011830238       -8.8375705773       -7.1354733181
 O        11.1661701400       -9.2112475013       -5.9712737205
 C        12.6986857542       -7.8772705828       -7.3431423467
 C        12.8202398517       -6.7958817828       -6.3431513977
 C        13.6298609935       -7.1063761027       -5.0773779222
 O        14.7536332890       -7.4962968101       -5.1646137595
 C        12.9052647185       -6.7853705868       -3.5565400355
 C        11.5895219403       -7.6740864790       -3.2590300898
 O        10.4705392970       -7.3456405208       -3.6682139029
 C        11.6840007405       -9.1475758375       -2.7440943221
 C        10.5132817500       -9.4642803472       -1.8418831857
 C         9.6109822136      -10.6238520351       -2.3993886037
 O         9.6342128634      -10.8248722177       -3.6205373956
 C         8.7770240847      -11.4086396450       -1.3462557983
 C         7.7249088692      -10.2039717505       -1.0493079589
 O         8.0675012241       -9.3229229515       -0.2861180928
 C         6.3657025414      -10.1541720917       -1.6978701039
 C         5.7730838630       -8.8115193340       -1.9431121794
 C         6.1436749955       -8.0551746413       -3.3316087716
 O         6.9532986686       -8.5618524719       -4.0656223560
 C         5.5458492147       -6.6314664984       -3.6311986985
 C         4.6923942902       -6.8078170573       -5.0146885597
 O         5.3250180965       -6.6345022350       -6.0146746573
 C         3.2071528317       -6.7471337707       -5.1205743176
 C         2.7873981700       -5.4430692444       -5.8332758938
 C         1.2016185344       -5.3444807261       -6.2677542003
 O         0.5111506526       -6.3358322021       -6.2066907811
 C         0.6828638088       -3.9452782453       -6.8119828414
 C        -0.7072637354       -3.3963317702       -5.9867080100
 O        -0.5102760717       -2.6644525690       -5.0148510995
 C        -2.0453638112       -4.1375327162       -6.2335125816
 C        -3.2519512984       -3.3423555065       -5.8367837085
 C        -3.3544044170       -1.9333433129       -6.4763777967
 O        -2.5827159612       -1.6774962940       -7.3989327177
 C        -4.2294756100       -0.8239493731       -5.9607896918
 C        -4.3756669920        0.3546243094       -7.0041062249
 O        -4.1858669743        1.5101791788       -6.7519203570
 C        -4.9675916392       -0.1370604246       -8.3536015456
 C        -5.9780405339        0.7759193532       -9.1454454849
 C        -7.3946986726        0.5437982899       -8.5635725550
 O        -7.9714350207       -0.5128373423       -8.2935228400
 C        -8.2579518829        1.8642687987       -8.5700779144
 C        -8.1246716870        2.6875560510       -9.8782381031
 O        -7.4946535393        2.3676558147      -10.8864855948
 C        -8.8869943298        4.0158981261      -10.0786377780
 C        -8.0891009536        5.0977980555      -10.9390192528
 C        -8.5630298378        5.4015742321      -12.4286638259
 O        -9.7290319408        5.6277048606      -12.6302909522
 C        -7.6441951811        5.7170755977      -13.6457192884
 C        -8.2702642552        4.8624795833      -14.8983547313
 O        -9.1475218299        5.3179463430      -15.6115917067
 C        -7.9015421391        3.3622842276      -15.0349139966
 C        -8.7935611288        2.7000734145      -16.0917235265
 C        -9.6706252008        1.5990531095      -15.5407324182
 O        -9.3234269880        0.6820936461      -14.8129414243
 C       -11.2156121745        1.5613653285      -16.0439301267
 C       -11.9160605842        2.4266851763      -14.9329274126
 O       -12.1492502197        3.5882055019      -15.1876574815
 C       -12.1153727997        1.8302672212      -13.5302904272
 C       -12.6401413597        2.8929227693      -12.4634356335
 C       -14.0103062300        3.5708859632      -12.7472788235
 O       -14.8250842048        3.1540091001      -13.5773474388
 C       -14.3569961004        4.8116274686      -11.8589445601
 C       -14.0994219056        5.9894456490      -12.9360826061
 O       -13.1427892742        6.7292051852      -12.8750981092
 C       -15.2181628131        6.5451724437      -13.8486274440
 C       -15.5965521152        5.8019250083      -15.1076335028
 C       -14.3398941445        5.8168568362      -16.0535237854
 O       -13.2758810449        6.1423230939      -15.5757667723
 C       -14.7294550254        5.7863815493      -17.5487639760
 C       -16.1364812851        5.0110534101      -17.9030865143
 O       -16.5545005403        4.1033182547      -17.1921825716
 C       -16.8440292818        5.4575227874      -19.1621657706
 C       -17.3383715116        4.1817104413      -19.9351103621
 C       -16.2486300341        3.7196901541      -20.9149698153
 O       -15.1906625952        3.3434255814      -20.4144304791
 C       -16.3894560277        3.8006506697      -22.5534356274
 C       -16.6429519693        2.3609117158      -22.9725607931
 O       -17.7614528498        1.9855302087      -22.9403631982
 C       -15.4531568629        1.3753158776      -22.9989385431
 C       -17.5462149172        4.7254376479      -23.0845320180
 C       -15.0919658554        4.5037890390      -23.0029849474
 C       -14.8698301399        7.2859998068      -17.7717085632
 C       -13.5799355630        5.0162445657      -18.3987547679
 C       -15.8869490779        4.7586437808      -11.5936744646
 C       -13.5538728666        4.8745038934      -10.6273907473
 C       -11.5670238886        2.2945479273      -17.4121372854
 C       -11.7045727499        0.0954479739      -15.9881290191
 C        -7.6597180280        7.2210520555      -14.0135938679
 C        -6.1427358289        5.2442354924      -13.4571408158
 C        -9.8381931685        1.4614031329       -8.5430994496
 C        -7.7014041121        2.7508882133       -7.4609923275
 C        -5.5807379658       -1.3659633350       -5.4827497642
 C        -3.4767206245       -0.1675391230       -4.7216232818
 C         1.7274664375       -2.7956074960       -6.5865952282
 C         0.3128224560       -4.1363626052       -8.3556948613
 C         4.4943963519       -6.1788625413       -2.5185163162
 C         6.7413060191       -5.6339262955       -3.7922110816
 C         8.1400576212      -12.7412609982       -2.0861546015
 C         9.4238621421      -11.9117572782       -0.1103276507
 C        14.0507333262       -7.0347620084       -2.4864345475
 C        12.5420972870       -5.2698215963       -3.5769870810
 C        11.2695167681      -10.6766088231       -8.7931844357
 C        10.2032852802       -8.4679796844       -9.3636252304
 H         8.7764418044      -11.7023196975       -9.0852042815
 H         7.4833439726      -11.0338716433       -8.0834354814
 H         8.7495973829      -12.1176070149       -7.2733008566
 H        12.7450821255       -7.5390701630       -8.3835441778
 H        13.6200953413       -8.5838745327       -7.1787333622
 H        11.7591784453       -6.4916351728       -6.1364960133
 H        13.1454662519       -5.8076031710       -6.7547004969
 H        12.5459291755       -9.4191687853       -2.1319797806
 H        11.8188033140       -9.6207120931       -3.7378836753
 H         9.7835837899       -8.5939798636       -1.5927653905
 H        10.9402379439       -9.8226050614       -0.8521768642
 H         5.5636419247      -10.5501088062       -0.9911314504
 H         6.3043097246      -10.8047588569       -2.5394084195
 H         6.0577344169       -8.1562220114       -1.1062736471
 H         4.6621712090       -8.8926546128       -1.9960764211
 H         2.7119347408       -6.8267066031       -4.1773578103
 H         2.8796653997       -7.6607121368       -5.7317042807
 H         3.3870144172       -5.4088094427       -6.7061126029
 H         3.0840721239       -4.6368650033       -5.2181711559
 H        -2.0080157255       -5.0210566151       -5.7378364020
 H        -2.2112792278       -4.2037077601       -7.2613578979
 H        -3.3230307650       -3.2039353737       -4.7826650851
 H        -4.1904341663       -3.8612248867       -6.1011990924
 H        -5.4240950282       -1.0659712383       -8.1477017281
 H        -4.1110476205       -0.2682726617       -8.9545998352
 H        -5.9604606429        0.3711008025      -10.1660865973
 H        -5.6561272320        1.8863358741       -9.1635176491
 H        -9.1575321252        4.5324859440       -9.1767789765
 H        -9.9030921068        3.9055959647      -10.5783514644
 H        -7.0550327695        4.7811102216      -10.8975099554
 H        -8.2613845465        6.0297331870      -10.4480851968
 H        -8.0009135956        2.9147035538      -14.0129839601
 H        -6.8198696285        3.1715725768      -15.4099248264
 H        -8.2178748193        2.1929681846      -16.8860858323
 H        -9.3926434921        3.4015304175      -16.6572587144
 H       -11.1861347823        1.3530467292      -13.2387874270
 H       -12.9338612646        1.0189485243      -13.6563727646
 H       -11.8708484248        3.5955022682      -12.3567181882
 H       -12.6955619314        2.3270107798      -11.5142366806
 H       -14.8522916417        7.5335905975      -14.1246539094
 H       -16.0865259205        6.7870730242      -13.2812661586
 H       -16.4632353319        6.3101866170      -15.5320881385
 H       -15.8429977583        4.7563153895      -14.7657797081
 H       -16.1388378179        5.9328253743      -19.8174089985
 H       -17.6358925957        6.1319199766      -18.8525761227
 H       -18.2759483497        4.3968018582      -20.4524467774
 H       -17.4620414296        3.3239012637      -19.3237213933
 H       -15.7067431427        0.4095950454      -22.6192517239
 H       -14.6668783953        1.8685058238      -22.3219243971
 H       -15.2539445985        1.2030742335      -24.0955544920
 H       -17.4894502430        5.7568491700      -22.7158065314
 H       -18.4825176120        4.2166270978      -22.9560611970
 H       -17.4836988902        4.7885586274      -24.1795105781
 H       -14.9290483752        4.6331447081      -24.0233686356
 H       -14.2046362364        4.0101014060      -22.4999407486
 H       -15.0555229468        5.4661665714      -22.5474687198
 H       -15.9571473404        7.5454900749      -17.7665229984
 H       -14.4824145384        7.5928296926      -18.7467086010
 H       -14.2087617094        7.8553439848      -17.1391516624
 H       -12.6258886490        5.3388376962      -17.9607698741
 H       -13.6625026652        5.3719198774      -19.3829574599
 H       -13.7023234405        3.9609718449      -18.5957572452
 H       -16.1593508443        4.0360789400      -10.7891375412
 H       -16.5016206543        4.4841713019      -12.4742025720
 H       -16.2835926163        5.7236765864      -11.1800940644
 H       -13.9035935343        5.5613248528       -9.7615147505
 H       -12.6029438060        5.3428598039      -11.0056879865
 H       -13.2907047766        3.9283424047      -10.1725650977
 H       -12.7161689987        2.4385543665      -17.4767923171
 H       -11.2826370287        1.5748523959      -18.1394412159
 H       -11.0915318999        3.2386541481      -17.4068210514
 H       -11.3139855459       -0.4226208226      -16.8514319865
 H       -12.7897923357       -0.0615634753      -16.0616206097
 H       -11.4186102595       -0.3564241444      -15.0766431918
 H        -8.2756580650        7.3128262822      -14.9219983749
 H        -6.6945427108        7.5269989898      -14.0881218257
 H        -8.1588763736        7.7897956257      -13.2808763440
 H        -5.5987726708        5.9546048173      -12.7578912496
 H        -5.7160822774        5.3023700195      -14.4235034333
 H        -6.0478412054        4.2822241362      -13.0711651624
 H       -10.4311324122        2.2633792972       -8.4333480787
 H       -10.0176758449        0.7850649949       -7.6741108518
 H       -10.1770568060        1.0060512415       -9.4788149650
 H        -8.2114600475        3.7663652632       -7.3599439624
 H        -6.6470280487        2.7496675606       -7.6427539098
 H        -7.6963739593        2.2317467718       -6.5349326354
 H        -6.1349387413       -2.0099392412       -6.1757733290
 H        -6.1788899481       -0.4979242749       -5.0927512984
 H        -5.4624831521       -1.9727022129       -4.6056737662
 H        -4.0814447398        0.6016875360       -4.3897188641
 H        -2.4217276610        0.0931140926       -4.9259964405
 H        -3.3747181973       -0.9230958364       -3.9839424951
 H         1.6143219820       -1.9617749133       -7.2648324369
 H         2.7234827586       -3.0769613817       -6.7623459182
 H         1.6792269923       -2.4470330895       -5.5493509527
 H         1.1924510572       -4.4056167451       -8.9682857220
 H        -0.1421811929       -3.2221096416       -8.7530160620
 H        -0.2972554518       -5.0070126292       -8.5862181963
 H         4.9061627530       -5.9774293568       -1.5842015068
 H         3.6756163126       -6.8818653547       -2.2291324655
 H         4.0405645024       -5.2176881092       -2.8455290409
 H         7.3750215656       -5.9030242257       -4.7219063400
 H         7.3868483304       -5.7336341616       -2.9231579450
 H         6.1987906530       -4.6715653311       -3.7949331562
 H         8.7331799243      -13.5621198017       -1.7694482412
 H         8.2678218909      -12.5964455283       -3.1573926815
 H         6.9899525350      -12.7891887664       -1.9182130197
 H        10.1893632734      -11.1826144496        0.2420632944
 H         9.8741991086      -12.8840370319       -0.3444435233
 H         8.6035845549      -11.9884144458        0.6515246846
 H        14.7401506815       -6.1979363072       -2.4160610379
 H        14.6505541964       -7.9842484645       -2.7575017353
 H        13.5774103584       -7.3270007238       -1.5752804002
 H        12.3782941050       -4.8027069009       -2.6238873483
 H        11.6361475337       -5.0650578391       -4.1489554988
 H        13.4130853534       -4.7533041498       -4.0171321924
 H        12.1794597862      -10.2795175758       -9.2113847218
 H        10.7224987859      -10.9907318870       -9.6410754353
 H        11.3711522048      -11.5212578673       -8.1179211814
 H        11.1862226106       -7.9621277598       -9.6752135315
 H         9.3814853486       -7.8348116138       -8.9632567439
 H         9.8389089571       -8.9938303627      -10.2167850046
 Na        9.1435501176       -8.8518031792       -4.6961686677
 Na      -11.4542191649        5.5427108842      -14.5756602884
