232

 C         8.4679179570      -11.2457972663       -8.0081000538
 C         9.1999409232       -9.9910490434       -7.6257167207
 O         8.7100169692       -9.3315782056       -6.7619129601
 C        10.6188020358       -9.5629558752       -8.3610363974
 C        11.5286061510       -8.9028241853       -7.1455717368
 O        11.3417687735       -9.0046967996       -5.9283390701
 C        12.6714444133       -7.8678904372       -7.4139589973
 C        12.6904902306       -6.7524856346       -6.3551922995
 C        13.4853246502       -6.9829755866       -5.0342511880
 O        14.6448160317       -7.2887926877       -5.1345267557
 C        12.9105929635       -6.7957438478       -3.5912424553
 C        11.7361556399       -7.7605914938       -3.4176427183
 O        10.6518490080       -7.3004544319       -3.7123057369
 C        11.7838977757       -9.1946097611       -2.7748902401
 C        10.6025696692       -9.4390308422       -1.8307196743
 C         9.7673747544      -10.7094317814       -2.3289074497
 O         9.7022065000      -10.8923817700       -3.5636310878
 C         8.7666437526      -11.3399668893       -1.4117314681
 C         7.6637389391      -10.2951900964       -1.1145715423
 O         7.9326197590       -9.3492533355       -0.3940550841
 C         6.2836990825      -10.2991612450       -1.8268997875
 C         5.8172528924       -8.8343953210       -1.9496526542
 C         6.1470601671       -8.1513227717       -3.2898774316
 O         6.9580913834       -8.4942917660       -4.0813542427
 C         5.4291351897       -6.6692039421       -3.6047351110
 C         4.7335445795       -6.5921754182       -5.0894614766
 O         5.5144342187       -6.6491635064       -6.0222656110
 C         3.2076269344       -6.6262370948       -5.2197489446
 C         2.7718430522       -5.2901232307       -5.8368691313
 C         1.2520934539       -5.2113178025       -6.1849134101
 O         0.6315845492       -6.2507847710       -6.0466500975
 C         0.6623513994       -3.9173383059       -6.7765512311
 C        -0.6099890013       -3.5842196431       -5.9294731960
 O        -0.5299392464       -2.7609635527       -5.0296194315
 C        -1.9607095336       -4.1920002578       -6.2681360798
 C        -3.1864292294       -3.3306706580       -5.7921054826
 C        -3.2029759654       -1.8809192720       -6.4700376527
 O        -2.3667744571       -1.6657106022       -7.3165404472
 C        -4.1971297418       -0.7654438721       -5.9253171138
 C        -4.5439565652        0.3693876312       -7.0293089884
 O        -4.2872299031        1.5234964594       -6.8048377951
 C        -4.9980679196       -0.1781349111       -8.4533143679
 C        -6.1399369581        0.6413752055       -9.1245182011
 C        -7.5284835052        0.5270162938       -8.6291001484
 O        -7.9283473078       -0.5358133982       -8.2226167438
 C        -8.3135350751        1.9455490206       -8.6341605111
 C        -8.1465064639        2.7263087005      -10.0000483715
 O        -7.5219667884        2.2463019127      -10.9600158294
 C        -8.7544295839        4.1626596517      -10.0314633351
 C        -8.0200305007        5.1323056170      -11.0720108687
 C        -8.6233406475        5.3978620389      -12.4976023665
 O        -9.8428325669        5.5302900654      -12.6272168148
 C        -7.6316367855        5.6510841471      -13.8072567941
 C        -8.2738043626        4.8214437997      -14.8898024009
 O        -9.1874011584        5.2937823152      -15.5541931890
 C        -7.9255572528        3.3135800060      -14.9665622054
 C        -8.6956497193        2.6092219360      -16.1330911484
 C        -9.6235046992        1.5511901651      -15.6281835819
 O        -9.2715820280        0.7061497508      -14.8227733865
 C       -11.2226597725        1.5683975533      -15.9910888578
 C       -11.9024841599        2.4641243298      -14.8819337200
 O       -12.1846127605        3.6280354153      -15.1502436463
 C       -12.3350256101        1.8424414855      -13.5768161913
 C       -12.6889579828        2.9452498361      -12.5600780395
 C       -14.0687906791        3.5201486192      -12.7840106482
 O       -14.8260256814        3.1361426778      -13.6592028975
 C       -14.3552253129        4.8400324394      -11.9593510102
 C       -14.1980820895        6.1845600801      -12.8268522713
 O       -13.0735140675        6.5990185316      -12.8576175775
 C       -15.3448276834        6.6575393271      -13.7360087389
 C       -15.6161842730        5.8077119481      -15.0030087171
 C       -14.4152177583        5.8110372507      -15.9751394450
 O       -13.2814168699        6.0531444742      -15.6604335026
 C       -14.7179555708        5.8871623691      -17.5075619022
 C       -16.0614931594        5.0798615612      -17.8974378972
 O       -16.5912786435        4.3579966988      -17.1640348457
 C       -16.7859008303        5.5246363932      -19.1952739740
 C       -17.3654791868        4.2716234134      -19.8996431264
 C       -16.2792079278        3.7612236071      -20.8987171963
 O       -15.2477394071        3.2899951544      -20.5020269864
 C       -16.3931261154        3.8485366595      -22.3940252100
 C       -16.6553645313        2.3056870723      -22.8155607317
 O       -17.7728530358        1.9005248557      -22.9864404823
 C       -15.3744987556        1.3457744803      -23.0707758410
 C       -17.5393157040        4.7181890111      -22.9238834751
 C       -15.0202979783        4.3778072946      -22.9875986624
 C       -14.9558405962        7.3635711777      -17.9125654143
 C       -13.5124338979        5.1249866244      -18.1997107302
 C       -15.9301794537        4.8445913990      -11.6064042089
 C       -13.6094541471        4.9422297653      -10.6395183667
 C       -11.5421101768        2.1411721669      -17.4216562622
 C       -11.7264666835        0.1181842182      -15.9594082528
 C        -7.7255757519        7.1524276227      -14.1396340895
 C        -6.1379665122        5.1999926895      -13.4250125638
 C        -9.7676284788        1.5175518138       -8.5076003311
 C        -7.7921188160        2.7437749073       -7.3788701858
 C        -5.5865098787       -1.4398497060       -5.5361243185
 C        -3.4292388827       -0.2299273504       -4.7384870290
 C         1.6823080106       -2.7054187494       -6.7365817450
 C         0.2167735012       -4.2164632259       -8.1787267752
 C         4.5260637363       -6.2552520766       -2.4663463294
 C         6.5760565967       -5.7337559001       -3.6920199689
 C         8.0049703358      -12.5783381821       -2.1503982384
 C         9.5037458761      -11.8856386284       -0.1166024489
 C        13.9814477040       -7.0322057676       -2.4689128499
 C        12.5850926302       -5.2467751180       -3.4721080642
 C        11.3414297159      -10.8378552755       -9.1037391762
 C        10.2116011576       -8.5331501962       -9.4317919861
 H         8.8898982360      -11.7017934840       -8.8991055850
 H         7.5174633749      -10.8317526911       -8.3311810149
 H         8.3937404822      -11.9268220990       -7.2008761855
 H        12.6134616254       -7.4788346155       -8.4130869085
 H        13.7088279624       -8.3550349279       -7.3074780986
 H        11.7380600732       -6.2452601329       -6.2782244737
 H        13.2384896097       -5.9601545468       -6.8110755716
 H        12.8078060439       -9.5045304009       -2.2898769947
 H        11.7215807147       -9.7611535283       -3.7010890992
 H         9.7760172848       -8.7262710728       -1.9036500649
 H        10.8580736764       -9.5447606529       -0.7604314942
 H         5.4570818102      -10.8302590159       -1.2542017203
 H         6.2834229193      -10.8000977724       -2.7570848533
 H         6.4599572980       -8.2449919686       -1.2675398903
 H         4.7657639536       -8.6357200937       -1.7163400497
 H         2.8209031159       -6.7179851488       -4.1895286661
 H         2.8933135962       -7.4977042127       -5.8141776407
 H         3.3528437940       -5.2095078635       -6.7349660769
 H         3.1298369445       -4.4465600128       -5.2046864741
 H        -1.9788978081       -5.0676175973       -5.5878501785
 H        -2.1588729806       -4.3655090450       -7.2769115081
 H        -3.1425110111       -3.1753292767       -4.7406215362
 H        -4.1372946935       -3.8151217965       -5.9616678479
 H        -5.2938800346       -1.2632817728       -8.2583653630
 H        -4.1961000045       -0.1391014565       -9.0731442151
 H        -6.1101443443        0.2308511823      -10.1680107152
 H        -5.8318697662        1.7062324088       -9.2401463721
 H        -8.8343322764        4.6801254833       -9.0536927080
 H        -9.8806335971        4.0589334203      -10.3493725534
 H        -7.1231400914        4.5540130179      -11.2289475126
 H        -7.8314021896        6.0542999186      -10.6673232287
 H        -8.2409775221        2.9273319345      -14.0004449170
 H        -6.8727106828        3.0080122191      -15.1124511049
 H        -8.0322526436        2.1065474803      -16.7415030311
 H        -9.2164392594        3.2645640872      -16.8340489371
 H       -11.4958073127        1.2005925978      -13.2640281311
 H       -13.2907099110        1.1976244124      -13.7560337666
 H       -11.8710359994        3.7027832197      -12.6550488499
 H       -12.5951602957        2.4399243383      -11.5018913408
 H       -15.1523944838        7.7297308561      -13.9755686840
 H       -16.3511430800        6.6811747762      -13.2147198129
 H       -16.5617587971        6.1555122762      -15.4124330541
 H       -15.6768596990        4.7618850246      -14.5791246186
 H       -16.1370300223        5.9825364087      -19.8839862854
 H       -17.5911133569        6.1509222423      -18.8050461961
 H       -18.3184692836        4.4855441514      -20.3754019880
 H       -17.4537256779        3.4870005119      -19.1985537366
 H       -15.7226788690        0.2345545434      -22.9281102684
 H       -14.6054017299        1.6026363785      -22.3400284771
 H       -15.1969337107        1.4234090202      -24.1474279574
 H       -17.6796249613        5.6442901716      -22.4271875303
 H       -18.4539171964        4.0935328724      -22.9412937088
 H       -17.3913054055        4.9397018911      -23.9877744518
 H       -15.0507783220        4.2712075561      -24.0498541348
 H       -14.1379290823        3.9364192703      -22.4989931942
 H       -14.9357853508        5.3826224814      -22.8765806883
 H       -16.0595131779        7.5578291507      -18.0253848100
 H       -14.5549326732        7.5438628200      -18.9095327413
 H       -14.3927658005        8.0608872929      -17.2762143480
 H       -12.6197681622        5.2646514694      -17.5775854698
 H       -13.3681426847        5.4388328190      -19.2596569164
 H       -13.7886678760        4.1270927076      -18.3978570272
 H       -16.0604568629        4.3099495518      -10.6729391377
 H       -16.5605518661        4.3405116283      -12.3001460608
 H       -16.4032349680        5.8325128097      -11.3450240549
 H       -14.0995712168        5.7136055706       -9.9838405784
 H       -12.5904544549        5.2769338917      -10.7214820031
 H       -13.6133864977        3.9476302400      -10.0548694986
 H       -12.5557861265        2.4211215818      -17.5411628288
 H       -11.2300546750        1.2818659246      -17.9346841158
 H       -10.8344113099        3.0243960575      -17.6800573957
 H       -11.3530621332       -0.4059883564      -16.8557848350
 H       -12.8296913607        0.0049266151      -16.0246640387
 H       -11.4465475840       -0.3969934187      -15.0589020604
 H        -8.6897073022        7.3782987229      -14.5301255753
 H        -6.8110159958        7.5311350394      -14.6704746072
 H        -7.7034512960        7.5690473806      -13.1680107736
 H        -5.7704563138        5.4515838297      -12.4323197876
 H        -5.4682521632        5.6172408957      -14.2064035506
 H        -6.1254985427        4.1241847105      -13.5521588775
 H       -10.5335812484        2.3570375225       -8.5219747445
 H        -9.9252437472        1.0579104995       -7.5152925312
 H       -10.0289787047        0.8072737164       -9.3179281382
 H        -8.2656880711        3.7804940193       -7.3254863902
 H        -6.6634467179        2.6939294089       -7.4818422781
 H        -7.9125624248        2.2406819669       -6.4546801047
 H        -5.8657400661       -2.1124110329       -6.2778061258
 H        -6.3372436824       -0.6417474332       -5.4248072037
 H        -5.6472497431       -2.0360658292       -4.6218824812
 H        -3.8528239325        0.6834885790       -4.4461602527
 H        -2.4024143859       -0.2218851678       -4.9028505703
 H        -3.5247097598       -1.0388870531       -3.8896537439
 H         1.4607056108       -1.8682912117       -7.3260417272
 H         2.6638117965       -3.0746904277       -7.1872158544
 H         1.8991091800       -2.3896559733       -5.6780850287
 H         1.0436601978       -4.1051823022       -8.8291630715
 H        -0.4371723053       -3.4577749508       -8.4100612043
 H        -0.1661290741       -5.1816108356       -8.4881132244
 H         5.0830870230       -6.1103818119       -1.5428335369
 H         3.6961844599       -6.9182504304       -2.1330473256
 H         4.1157179167       -5.3164099424       -2.6655642085
 H         6.9726982139       -6.0673772473       -4.7328561669
 H         7.4071238742       -5.9472754331       -2.9353973406
 H         6.1376327422       -4.7410962785       -3.6810862652
 H         8.7979492609      -13.3634973930       -2.1518411737
 H         7.6736379024      -12.3730499070       -3.1774950421
 H         7.1178191444      -12.8046331207       -1.5003673066
 H        10.2737782348      -11.1581922165        0.1952810704
 H         9.9096657272      -12.8932570856       -0.3309809164
 H         8.7054465473      -11.9263384625        0.6624944070
 H        14.5882231431       -6.1682735809       -2.5111863175
 H        14.6136420353       -7.8854477928       -2.6248013135
 H        13.5020143411       -7.2122580476       -1.4803693036
 H        12.4892645833       -4.8196459759       -2.4839284536
 H        11.5724581668       -5.0875551582       -3.9222299295
 H        13.3435145304       -4.6914250134       -3.9719566198
 H        12.3807127138      -10.6876177737       -8.8976624343
 H        11.2140409612      -10.8229807971      -10.1665479615
 H        11.0203582665      -11.7836186814       -8.6960556484
 H        11.1926593451       -8.1640498088       -9.7591643495
 H         9.4391843842       -7.8182944919       -9.1203073653
 H         9.8376258782       -9.1428694965      -10.2848701412
 Na        9.1823126178       -9.0269980732       -4.5703169477
 Na      -11.4857453353        5.5808656704      -14.4346157855
