232

 C         8.3926784621      -11.2482739688       -8.1261189914
 C         9.3035670033      -10.0368871649       -7.5939550930
 O         8.8492497135       -9.2949882572       -6.7535081651
 C        10.6975197425       -9.6673466981       -8.2678732577
 C        11.6076377059       -8.8485911130       -7.1435985644
 O        11.3159576038       -9.0698131864       -6.0109342851
 C        12.6837141246       -7.8392141999       -7.5372933853
 C        12.5797414928       -6.6391635856       -6.3442657648
 C        13.4863013709       -6.9763822261       -5.0883923238
 O        14.6845294072       -7.1933020250       -5.1727434047
 C        12.9235348153       -6.7513485616       -3.5825986278
 C        11.6904191341       -7.6862735452       -3.4208411022
 O        10.6184360611       -7.3260652477       -3.8627907710
 C        11.9516766698       -9.1096740246       -2.8652660008
 C        10.7402136710       -9.4601450408       -1.9456408044
 C         9.7304067667      -10.6394534664       -2.3924511830
 O         9.8325555232      -11.0897446262       -3.4897874342
 C         8.6922737465      -11.4042100070       -1.4132663620
 C         7.6418911653      -10.2931361035       -1.1677665624
 O         7.8848487470       -9.4029952998       -0.4126321116
 C         6.3361553085      -10.2671626874       -1.9944403002
 C         5.7086553800       -8.7970213423       -2.0090257045
 C         6.0696579955       -8.1131361471       -3.2864705760
 O         6.9456290626       -8.5192826188       -4.0605232773
 C         5.4049110423       -6.7534915415       -3.5999618752
 C         4.8278842651       -6.7256125901       -5.0291272950
 O         5.5611856871       -6.6477190463       -6.0071429681
 C         3.2904748884       -6.4475648559       -5.2916601298
 C         2.8638065881       -5.0756152964       -5.8368842281
 C         1.3625867370       -5.2068425341       -6.0962278472
 O         0.6277713142       -6.1605056847       -5.8842329485
 C         0.6483223818       -3.8696228523       -6.8003306230
 C        -0.5734801586       -3.5891455697       -5.8082140656
 O        -0.5158012983       -2.8124241668       -4.9166173946
 C        -1.9674735997       -4.2383911114       -6.2365588164
 C        -3.0962704861       -3.2637923075       -5.7509558970
 C        -3.0103915470       -1.9448418389       -6.5333411990
 O        -2.1979411541       -1.5767851119       -7.3273640314
 C        -4.1210406537       -0.8402833944       -5.9623712054
 C        -4.5424242814        0.2061086808       -7.0711447842
 O        -4.5039819424        1.4211748530       -6.8769233306
 C        -4.9695326015       -0.2959030532       -8.4420878514
 C        -5.9441063201        0.5904135901       -9.1956716034
 C        -7.4626360542        0.5428152873       -8.6812006978
 O        -8.0199372609       -0.3708962350       -8.1471984131
 C        -8.3630353859        1.8951436486       -8.6871225249
 C        -8.1523463602        2.7880858435      -10.0438631167
 O        -7.6427762457        2.2184616133      -10.9562955983
 C        -8.6119270381        4.2775988852      -10.1942831480
 C        -7.8864488740        5.0355125215      -11.2481486366
 C        -8.6467952335        5.3354597647      -12.4865696111
 O        -9.8820607459        5.3560015561      -12.5886621035
 C        -7.7162143802        5.5301913300      -13.6773945729
 C        -8.4282123386        4.6899896380      -14.8058224526
 O        -9.2584138150        5.2447651080      -15.4995189781
 C        -7.9542448222        3.2614960992      -14.9933411520
 C        -8.5877339191        2.5523151038      -16.2199594574
 C        -9.6941700590        1.5026545258      -15.6199658927
 O        -9.2536215598        0.7303684429      -14.8357145781
 C       -11.1984166027        1.4467984040      -16.0130006194
 C       -11.9605280086        2.4076309959      -14.9640223022
 O       -12.1197070037        3.6003140464      -15.1817971923
 C       -12.4964850191        1.8277647987      -13.6195813285
 C       -12.7416176596        2.9668167427      -12.6032046663
 C       -14.0714771339        3.6340006123      -12.8874907814
 O       -14.8211889799        3.1006294451      -13.6593535042
 C       -14.5453573946        4.9489236346      -11.9366127304
 C       -14.2014561616        6.1934907106      -12.8545009032
 O       -13.0165063041        6.5400290139      -12.8511218720
 C       -15.3228393521        6.7571318463      -13.6063442384
 C       -15.5811165773        5.8455699284      -14.8592039798
 C       -14.5694669246        6.0265636616      -15.9237254856
 O       -13.3456928721        6.0106034560      -15.6802887828
 C       -14.7828346674        5.9556481722      -17.5592191427
 C       -16.0984727149        5.2627241746      -17.8774765153
 O       -16.5888138092        4.4778017798      -17.0360216780
 C       -16.7676578620        5.5642141038      -19.2588515627
 C       -17.3131986113        4.3384318987      -19.9831914474
 C       -16.1910397124        3.7221994494      -20.8521248395
 O       -15.2252241033        3.2009653257      -20.3207509477
 C       -16.3937886876        3.8033826757      -22.4330781265
 C       -16.6368443951        2.3155914723      -22.8189280562
 O       -17.7661607871        1.8104604192      -22.9941715112
 C       -15.4104641418        1.4418360611      -23.0966868202
 C       -17.6081165837        4.6773049913      -22.8273975366
 C       -15.0319304760        4.2037794926      -23.0118466897
 C       -14.8664574704        7.4224188664      -18.0684620301
 C       -13.5426604949        5.3174068586      -18.1544328251
 C       -16.1294131010        4.7635676744      -11.4827677102
 C       -13.6851935937        5.0518548653      -10.7002019211
 C       -11.4368187402        2.0243122914      -17.4197361197
 C       -11.7728224465        0.0953843952      -15.8636194227
 C        -7.7495155199        7.0857613166      -14.1426907587
 C        -6.2043681696        5.2509935342      -13.4639251283
 C        -9.8697568523        1.6290241143       -8.4091584002
 C        -7.9476785300        2.6721567472       -7.4206375352
 C        -5.5353934438       -1.4705615052       -5.6208163039
 C        -3.4859435805       -0.2064325575       -4.7029780432
 C         1.5119048400       -2.6941276021       -6.8507609688
 C         0.2012652323       -4.2793393483       -8.2005858794
 C         4.4560129082       -6.3472573309       -2.4041268067
 C         6.6419975669       -5.6799038945       -3.5741610052
 C         8.0221230349      -12.5545062048       -2.1788048501
 C         9.4510113952      -11.8407760366       -0.0851015709
 C        14.0493826018       -7.0813889995       -2.5173029834
 C        12.4535707344       -5.3221544695       -3.4000175111
 C        11.4237526907      -10.7769994244       -9.0498392700
 C        10.2619571537       -8.5751119331       -9.3814458826
 H         8.9918324302      -11.8544436060       -8.7580450673
 H         7.5195795578      -10.9860025540       -8.6993121282
 H         8.2106914152      -11.8274114595       -7.2879200389
 H        12.4102662394       -7.5110225818       -8.5652880195
 H        13.6265156415       -8.2134885310       -7.6183944522
 H        11.5741281153       -6.5626762042       -6.0249003574
 H        12.7554086733       -5.6702962185       -6.7272205200
 H        12.9012173794       -9.0569165630       -2.3150450616
 H        12.1384761748       -9.7999362339       -3.7076404144
 H        10.0789444937       -8.6692542098       -1.8113427571
 H        11.0317689049       -9.7960724196       -0.9999181612
 H         5.6655560240      -10.9966977902       -1.6381888446
 H         6.4494286675      -10.5995081008       -3.0775637383
 H         6.2361628992       -8.1614148484       -1.2817861579
 H         4.6320039338       -8.7148201645       -1.8939816166
 H         2.6720684220       -6.6277392171       -4.3736845373
 H         3.0209299581       -7.1203472914       -6.0658736195
 H         3.4656506036       -4.7767066662       -6.7590627523
 H         2.9634896880       -4.1858965909       -5.1372027768
 H        -2.1211710245       -5.1643442480       -5.5650917971
 H        -2.1689770560       -4.3448670819       -7.3581126858
 H        -2.9410530878       -2.9902393022       -4.6842869289
 H        -4.1084812163       -3.6082861628       -5.7959143051
 H        -5.3682806786       -1.3325779117       -8.2709814139
 H        -3.9968270165       -0.4219708310       -9.0938041071
 H        -5.8016073477        0.3073699152      -10.2736631258
 H        -5.6205188709        1.6404557068       -9.1964385210
 H        -8.4774062212        4.8958148621       -9.2383113521
 H        -9.6795985589        4.3050462578      -10.3435850910
 H        -7.0075422572        4.4572337170      -11.4539721843
 H        -7.6414968616        6.0620980946      -10.8634371532
 H        -8.1880396627        2.7110246266      -14.0989350149
 H        -6.9312202601        3.2077967263      -15.0835754741
 H        -7.8640250824        2.0170376098      -16.8242110806
 H        -9.0692176689        3.2154618820      -16.9299300593
 H       -11.7311416742        1.0641317513      -13.2714899012
 H       -13.4365920695        1.3777275386      -13.7461196768
 H       -11.7338813172        3.5770594328      -12.5706962429
 H       -12.8721555299        2.4659799794      -11.6206974188
 H       -15.0581314006        7.8013652804      -13.9553683139
 H       -16.2710234664        6.8504331500      -12.9909254476
 H       -16.5665860159        6.1704514243      -15.2468068759
 H       -15.5114693490        4.7928754955      -14.6215197618
 H       -16.0377058671        6.0648174660      -19.9199870442
 H       -17.6848494389        6.0826837480      -18.9784954845
 H       -18.1254097362        4.6571865320      -20.6063057750
 H       -17.6881675289        3.6607502319      -19.1788090834
 H       -15.8082030700        0.4296969167      -23.2051256509
 H       -14.8210877456        1.5313401150      -22.2233657506
 H       -14.9878255987        1.7430946627      -24.0664971761
 H       -17.6102015926        5.5660721027      -22.1372130371
 H       -18.5681369395        4.1327162708      -22.7579813604
 H       -17.5871893907        5.1005304169      -23.8183072035
 H       -15.0341826181        3.9602267555      -24.1018570196
 H       -14.2829309875        3.7737724040      -22.4390837779
 H       -14.8689657490        5.3366237786      -23.0913978563
 H       -15.8332969783        7.8373517973      -17.9009443077
 H       -14.7026984505        7.5736341558      -19.1677532840
 H       -14.0647873703        7.9702680183      -17.5129447175
 H       -12.7483803227        5.5832628377      -17.4859623162
 H       -13.3565422349        5.6118020915      -19.2109218237
 H       -13.6797182066        4.2390736618      -18.2996755118
 H       -16.1026972376        4.0021322457      -10.7173491741
 H       -16.7311866058        4.3527629582      -12.2818886047
 H       -16.6458682674        5.5769570651      -11.0389219289
 H       -13.8309849783        5.9233098988      -10.1487896828
 H       -12.6053797907        5.0778231979      -10.8988733532
 H       -13.8831822370        4.1701230058      -10.0578920032
 H       -12.4743744555        2.1689728289      -17.4631302056
 H       -10.9008397321        1.2499565357      -18.1176060933
 H       -10.9423785882        2.9993317677      -17.4974596125
 H       -11.4277879023       -0.5880822129      -16.6587864373
 H       -12.8473289877        0.1223343457      -15.9490387160
 H       -11.5688534703       -0.3623647964      -14.8454726586
 H        -8.7563017109        7.4014822965      -13.9331748106
 H        -7.4054541976        7.1448230026      -15.2220629012
 H        -7.0511711978        7.7226764976      -13.4981120803
 H        -5.7846790755        5.6827279224      -12.5831691056
 H        -5.6792374471        5.7155742079      -14.3457017023
 H        -6.0374982057        4.1157220475      -13.5194601180
 H       -10.4715990280        2.6807436068       -8.5743441329
 H       -10.1483810385        1.3688455959       -7.3877605209
 H       -10.2774064720        0.9120075680       -9.1500100176
 H        -8.5127911478        3.5411271607       -7.5277801712
 H        -6.8464086318        2.7960661782       -7.3024534059
 H        -8.2182444294        2.1978826819       -6.4086883878
 H        -5.8590012314       -2.2057357801       -6.3483477256
 H        -6.2344467595       -0.7056931552       -5.5216535328
 H        -5.5219113834       -2.0765591028       -4.6977041999
 H        -3.9477883560        0.8674722467       -4.6347935389
 H        -2.4339544731       -0.1438586888       -4.9443657592
 H        -3.5196762440       -0.7598425513       -3.7694362605
 H         0.9626951630       -1.7661116719       -7.2016849667
 H         2.2574597421       -2.8435133026       -7.6970727616
 H         2.0200441318       -2.4027968068       -5.9257558757
 H         0.9839366011       -4.1792885228       -8.8888749586
 H        -0.6125990056       -3.6704816722       -8.5756213215
 H        -0.1019505272       -5.2956129514       -8.2721267074
 H         4.9872891787       -6.3011930271       -1.4031800328
 H         3.6090845441       -6.9222194036       -2.2094255160
 H         4.0982883377       -5.3472288501       -2.5518793740
 H         7.1788416749       -5.9747180477       -4.4349367979
 H         7.2525730085       -5.8758409608       -2.6532677594
 H         6.1706676103       -4.6664852503       -3.6996269065
 H         8.8331002440      -13.1409334699       -2.6996293559
 H         7.3668183843      -12.1597879308       -2.9958893594
 H         7.4852211191      -13.1107398372       -1.4509758904
 H         9.9577215874      -10.9388469008        0.2221316628
 H        10.1248499333      -12.6962672274       -0.2450098785
 H         8.7301958649      -12.0563945584        0.6747507168
 H        14.8708032303       -6.3844426286       -2.7006039893
 H        14.4458445655       -8.0082780652       -2.7012424151
 H        13.7168146295       -7.0849762582       -1.4758386474
 H        12.1718480042       -5.0999663727       -2.3560677876
 H        11.4664136464       -5.3275071939       -3.8445211546
 H        13.1127235714       -4.5312687289       -3.7213958846
 H        12.4048766815      -10.9720423282       -8.6072661872
 H        11.4941140949      -10.4915697852      -10.1309461328
 H        10.8580054877      -11.6909795181       -8.9769432900
 H        11.1557677639       -8.4166389869       -9.8695902839
 H         9.8461340810       -7.6914976100       -8.8972395078
 H         9.5248102302       -9.0235821654      -10.0964513316
 Na        9.2388442885       -9.1077053935       -4.4973920272
 Na      -11.3969809568        5.7072306182      -14.2285319636
