232

 C       -19.4402133373       -8.4787817703       -1.4086354707
 C       -18.6372514360       -9.7447988653       -1.4163140014
 O       -17.8743064477       -9.8580112121       -2.3524813542
 C       -18.7294900363      -10.8445958561       -0.3069734647
 C       -17.2661336204      -11.0327887412        0.3622612433
 O       -16.5265979985      -11.9820501458        0.0126761409
 C       -16.8545582738      -10.1053183441        1.5891616700
 C       -15.3255926786       -9.8648652150        1.5369554768
 C       -14.9881877636       -8.9713713048        0.2595095576
 O       -15.9309046286       -8.4421185400       -0.2780951408
 C       -13.5782465614       -9.0268372717       -0.4138960039
 C       -13.9645306281       -9.9597532545       -1.6350055945
 O       -14.4637395501      -11.0911976465       -1.4311949721
 C       -13.8432502122       -9.3678712714       -3.0413709487
 C       -13.4272308484      -10.4883264731       -4.1192705584
 C       -14.5446227682      -10.7453119855       -5.2393986938
 O       -15.6756223611      -11.0990610849       -4.9229363639
 C       -14.1821947868      -10.3684561950       -6.7688902412
 C       -13.6088872718       -8.8999412512       -6.6447270691
 O       -12.6119461494       -8.6511550324       -5.9949376424
 C       -14.2194464450       -7.8423054058       -7.5930906871
 C       -13.2165854102       -6.7049079499       -7.8610169448
 C       -13.8879579160       -5.6725268456       -8.7920588942
 O       -14.8720452406       -5.1002130504       -8.3572438324
 C       -13.4459039507       -5.3601973086      -10.1836525602
 C       -12.0206640243       -4.6588948301      -10.1280660781
 O       -11.0987850103       -5.1987479684       -9.6239852032
 C       -11.8658319419       -3.2590291382      -10.7223323085
 C       -10.4786994651       -2.7361171859      -10.4360772919
 C       -10.2867552039       -1.3100518259      -10.6662895753
 O       -11.1022353612       -0.5780260792      -11.3173609984
 C        -9.1265279182       -0.5589507108      -10.0580300222
 C        -7.7321764977       -1.1168234439      -10.6584020861
 O        -7.6832382470       -2.2438781640      -11.0847309303
 C        -6.5492584585       -0.1731333598      -10.5527068873
 C        -5.5746448155       -0.1640293320      -11.7594325538
 C        -4.4812509676        0.8164433695      -11.5006210444
 O        -4.5332873148        1.6562493198      -10.6492372124
 C        -3.1327771288        0.5597330040      -12.3291403512
 C        -2.3495717091       -0.4423081403      -11.3485538033
 O        -2.0631526562       -1.5870058828      -11.6495627254
 C        -2.0591268798        0.2488890067      -10.0293859278
 C        -0.9790491877       -0.5906613298       -9.2499140089
 C        -0.5491106504        0.0077503202       -7.9171052471
 O        -1.2518262394        0.7788426247       -7.2671818532
 C         1.0517343631       -0.1786342582       -7.2546490930
 C         2.0923325730        0.6568852876       -8.1351682088
 O         2.7189943885        0.0604233716       -8.9722952401
 C         2.4229270427        2.0505554504       -7.6750976555
 C         3.7197996964        2.5831982285       -8.2739933219
 C         3.5282954205        3.4551484354       -9.5465796414
 O         2.4851159335        3.6001074143      -10.1069251924
 C         4.8129091125        4.3912069628       -9.8874306170
 C         4.9817230570        4.4383747627      -11.4679182761
 O         5.9305317525        3.9866751533      -12.0512836986
 C         3.8588498478        5.1823249200      -12.2179493723
 C         4.3779832364        6.6210849169      -12.6243575894
 C         4.2727364024        6.9380234076      -14.1321842071
 O         3.8766136760        6.2075415536      -15.0454819382
 C         4.8689055556        8.2758268611      -14.5573484757
 C         5.8236049515        8.2364265521      -15.8689359923
 O         5.5819988406        8.8298105285      -16.8769226498
 C         7.1198406996        7.4325469303      -15.4663433335
 C         7.7102279937        6.9232226932      -16.7798428707
 C         7.5099194970        5.3982412348      -17.0392979750
 O         7.1574872137        4.7143045664      -16.1128741842
 C         7.7207353169        4.6851386291      -18.3893678105
 C         9.2399658287        4.2426438088      -18.3476686248
 O        10.0549701422        4.7967609220      -17.6299621366
 C         9.7359996227        3.1473723504      -19.3327744138
 C        10.7275622268        2.0898570832      -18.6266772326
 C        10.0611146528        0.8471171661      -17.8554986867
 O         8.9207747987        0.5000243559      -17.9767659075
 C        11.0663132451       -0.1419213020      -17.1017223558
 C        10.5488063319       -0.3717509117      -15.6963967827
 O        11.2332409286       -0.1033207251      -14.7542694106
 C         9.1315615452       -0.9889095645      -15.5018324240
 C         8.4290583228       -0.4182714746      -14.2186380585
 C         7.3506162400        0.6994056609      -14.6048031867
 O         7.5685566594        1.9111074333      -14.5971670723
 C         5.8868426438        0.2062673098      -14.8384993180
 C         5.3489682546        1.0376069911      -16.0829191316
 O         4.8821509115        2.1647983410      -16.0082501919
 C         5.5748592307        0.4095999227      -17.4466393146
 C         5.6185635993       -1.2822325132      -15.1035695396
 C         5.0720255823        0.6228187809      -13.5319194881
 C        11.1157537931       -1.4932118707      -17.9664326002
 C        12.4915905586        0.3916451443      -16.9943744598
 C         6.8207593377        3.4041835293      -18.3240346296
 C         7.5794194953        5.5716293471      -19.7053205801
 C         3.5888938595        9.0646994388      -15.0947024899
 C         5.5016742688        9.1094455075      -13.4915335850
 C         4.4083073750        5.8781142570       -9.3183602807
 C         6.2245549552        3.9404621361       -9.3989682213
 C         0.9081379451        0.2073176040       -5.7795155923
 C         1.3858448878       -1.6944087467       -7.2996211606
 C        -3.3937114272       -0.2068929874      -13.6475358019
 C        -2.3765919718        1.9425166594      -12.6806206101
 C        -9.2107328142        1.0596692640      -10.2714050021
 C        -9.0341959269       -0.7711347745       -8.4442689588
 C       -13.2106159238       -6.7077752048      -10.9633498372
 C       -14.6394848186       -4.6062753014      -10.9653857128
 C       -13.0818936506      -11.1528133245       -7.4920323192
 C       -15.5031939538      -10.4519307457       -7.6780412238
 C       -13.0938361495       -7.5878287158       -0.8694098795
 C       -12.4403278670       -9.6575935134        0.4228220241
 C       -19.7346863218      -10.4705776519        0.8115945029
 C       -19.0624616135      -12.3166239890       -1.0085629204
 H       -19.2142148243       -7.9639204845       -0.4302579996
 H       -20.4534273624       -8.7409015539       -1.5005067216
 H       -19.0594749282       -7.8620802639       -2.2316882535
 H       -17.1733963457      -10.7429006322        2.4447150661
 H       -17.4915173218       -9.1938010135        1.6439543898
 H       -14.7578558694      -10.8171374642        1.4828080602
 H       -15.0087963262       -9.4124526066        2.5244101399
 H       -13.1556192130       -8.5279480909       -3.1809172908
 H       -14.8460742265       -9.0700958205       -3.3744961244
 H       -13.2689025110      -11.4463277829       -3.6382083602
 H       -12.5849502254      -10.1112623943       -4.6115555315
 H       -15.1727474353       -7.4936419430       -7.2128525417
 H       -14.4495243193       -8.3678226461       -8.5274768987
 H       -12.3428943789       -7.1375334088       -8.2973362881
 H       -12.8192102747       -6.1657674137       -6.9241050966
 H       -12.7163987750       -2.6091179000      -10.5684068448
 H       -12.1176400159       -3.3256608858      -11.8345785630
 H        -9.6862350426       -3.3169877860      -10.8991510341
 H       -10.2938301385       -2.8973453140       -9.3953898168
 H        -5.9727193723       -0.5167983664       -9.7490756909
 H        -6.9436133776        0.7938436646      -10.2910431621
 H        -6.1447184484        0.0163456227      -12.6791789010
 H        -5.2635616184       -1.2458352253      -11.8507469613
 H        -2.9420009106        0.4904702357       -9.3374326473
 H        -1.5920592060        1.2212549841      -10.0308599866
 H        -0.1114084770       -0.7900985267       -9.8358513659
 H        -1.3177244421       -1.5541266233       -8.9112811982
 H         2.4239810876        2.0069063400       -6.5654189951
 H         1.6606177051        2.7908345082       -7.7061122048
 H         4.4213701257        1.8103257473       -8.3851579804
 H         4.2503042058        3.1336852312       -7.4880760222
 H         3.0075907938        5.2218356927      -11.5381572366
 H         3.4269899931        4.6235534772      -13.0618460789
 H         5.4629397994        6.7984109656      -12.3865858012
 H         3.8092069608        7.4366356606      -12.1416592266
 H         6.7607212346        6.5674603958      -14.9026864436
 H         7.6197664350        8.0419609461      -14.7492442201
 H         8.9399681695        7.0019626750      -16.8282393963
 H         7.3555481580        7.4623969451      -17.6005897460
 H        10.3967382556        3.6910148754      -20.1080050999
 H         9.0051384447        2.5833154634      -19.8603262598
 H        11.3609370347        2.5683331053      -17.8983853243
 H        11.3432099691        1.5804122774      -19.4575589706
 H         9.2745197329       -2.0404220416      -15.3390379457
 H         8.5377217486       -1.1362364857      -16.4442191280
 H         9.1173748892       -0.0296398313      -13.4855277547
 H         7.7020488674       -1.2073246202      -13.8856793324
 H         6.5964581320        0.3255252826      -17.7946041795
 H         5.1333297785        0.9696211854      -18.3067662728
 H         5.1604352901       -0.5024513876      -17.4481723599
 H         4.7239910982       -1.4651553517      -15.6561517594
 H         5.3993328978       -1.7479312032      -14.1478927197
 H         6.3488331415       -1.8473698125      -15.6688611157
 H         4.0103262918        0.5074071864      -13.6926962391
 H         5.3858596223        1.6549497697      -13.4777486481
 H         5.4155648894        0.0479948367      -12.7300875038
 H        11.6538855355       -1.3782630574      -18.9063134796
 H        10.1845217390       -2.0591303909      -18.1999461953
 H        11.7837506928       -2.2515620614      -17.4763421398
 H        13.0613251054        0.3835269615      -17.9151984726
 H        13.1141901634       -0.3380590904      -16.4335636446
 H        12.5314779429        1.2973216465      -16.3689197712
 H         5.8007754840        3.5293526705      -18.6979546054
 H         6.9392538842        3.1221463369      -17.2395535263
 H         7.2018096020        2.4327020309      -18.8006426413
 H         8.6050953915        6.0137313093      -19.8866918409
 H         6.8895222676        6.3246895233      -19.5080217357
 H         7.2459573752        4.8751879365      -20.5056725232
 H         2.7252264449        8.8126264499      -14.5164323817
 H         3.3179053247        8.8262012645      -16.0411463126
 H         3.8872112834       10.0980872110      -14.9416572405
 H         5.8541692220       10.0687179382      -13.8711274298
 H         6.3538882502        8.6401138071      -13.0539490947
 H         4.8668803947        9.3993709317      -12.7273410785
 H         4.3608258928        5.8905549132       -8.2042498555
 H         3.4255727161        6.2680674968       -9.6649529489
 H         5.2683694805        6.5247072355       -9.6284734644
 H         6.8875940334        4.7969765145       -9.1621170634
 H         6.6864188819        3.0646302087       -9.9542627829
 H         6.0118534641        3.4475721261       -8.3917564506
 H         0.7151793733        1.2881458192       -5.6747325365
 H         1.9270231697       -0.0032823038       -5.3468227301
 H         0.0912575788       -0.2902341493       -5.2470806583
 H         0.7671091642       -2.3915826391       -6.6964236703
 H         2.3311403517       -1.7107976674       -6.8376010468
 H         1.2369198321       -2.0639159176       -8.3325777344
 H        -4.1888020526       -0.9760863135      -13.4645832940
 H        -2.5033254605       -0.5714727823      -14.1069794984
 H        -3.9403546433        0.3970060417      -14.4314932917
 H        -1.3206720640        1.7748707868      -13.0447629068
 H        -2.3160019927        2.6863743602      -11.9034845570
 H        -2.9051795719        2.2670947349      -13.5589191705
 H       -10.2419630859        1.5021915899      -10.2672372824
 H        -8.8885152354        1.2490218463      -11.2957488310
 H        -8.6810748402        1.7116701654       -9.5601004398
 H       -10.0583217822       -0.4794410103       -8.1296078839
 H        -8.2241940852       -0.1623976141       -8.1173145633
 H        -8.7729493663       -1.7793811382       -8.2052883389
 H       -13.0989909756       -6.6938974949      -12.0312424298
 H       -14.0373875885       -7.3948434514      -10.6264143278
 H       -12.2762653923       -7.2187665907      -10.7091481401
 H       -15.5320386027       -5.0162815049      -10.5080223992
 H       -14.5573385387       -4.8088719189      -12.0071574337
 H       -14.7143881352       -3.4875236580      -10.7500261834
 H       -12.1896430131      -10.6285953519       -7.3561397751
 H       -13.2796340805      -11.3017939272       -8.5501378724
 H       -13.0370812014      -12.1831836123       -7.0766630691
 H       -16.3188173008       -9.7717041429       -7.5342269285
 H       -16.1245818739      -11.3382810072       -7.5600953174
 H       -15.3693184743      -10.3236211417       -8.8107329232
 H       -13.9345157681       -7.0530325008       -1.3483747283
 H       -12.2212052433       -7.5857562859       -1.5286931790
 H       -12.8909611541       -7.0256724598        0.0311181075
 H       -12.5369893337      -10.7362332611        0.2415624575
 H       -12.6465807406       -9.2656323767        1.4512472227
 H       -11.5262057831       -9.3354900724       -0.0799845091
 H       -19.4972307890       -9.5601618084        1.3587209912
 H       -19.6920634262      -11.3188639373        1.4734344400
 H       -20.7381400651      -10.3765548892        0.3033127229
 H       -19.8488153369      -12.7664940479       -0.3602650473
 H       -18.2173979507      -12.9883374223       -1.1260340769
 H       -19.5395967500      -12.1260281462       -1.9814333643
 Na      -16.3532321618      -11.3933663833       -2.7439043829
 Na        5.9534608417        3.7516702668      -14.2870031441
