232

 C         8.8579433675      -11.2251482049       -8.9438090781
 C         9.4094964987      -10.1776520564       -7.9694533569
 O         8.6955665824       -9.8813815025       -7.0286651827
 C        10.7771455931       -9.6132318932       -8.2014955389
 C        11.5135825555       -8.7273599898       -7.0720148742
 O        11.6242077965       -9.1954826173       -5.9640258837
 C        12.2276186838       -7.2567644484       -7.4955083695
 C        12.2313860952       -6.4511470851       -6.1271544484
 C        13.2954109721       -6.7967864634       -5.1644135506
 O        14.3756962818       -7.2013346893       -5.4604802106
 C        12.8954066295       -6.8394779280       -3.6145568336
 C        11.7016629198       -7.9122027145       -3.4529746042
 O        10.5910300679       -7.5971514900       -3.8613012257
 C        11.9748070993       -9.2127512214       -2.7293469672
 C        10.8519332086       -9.7504128308       -1.7783343001
 C         9.8865739522      -10.6609193262       -2.4427550182
 O         9.8844140181      -10.9095014413       -3.6406616023
 C         8.9164407513      -11.3579890913       -1.4385431630
 C         7.6757553024      -10.1673097178       -1.5967458147
 O         7.7961220388       -9.1509191854       -0.9018105763
 C         6.6039280548      -10.3644424570       -2.6067610085
 C         5.6520191848       -9.1610015343       -2.5414776998
 C         6.2826807027       -7.9469139306       -3.3012502687
 O         7.3843680145       -8.0635645704       -3.8348151878
 C         5.5138886071       -6.5819015965       -3.4404904124
 C         5.0968296045       -6.4610179594       -5.0106404515
 O         6.0252614446       -6.4570837599       -5.7741509458
 C         3.6634574906       -6.3949512922       -5.4351196002
 C         3.1455511189       -4.9282939779       -5.6848558586
 C         1.6167655260       -4.9320366054       -5.8668790662
 O         0.9832674477       -5.9162116235       -5.5027290302
 C         0.8431910696       -3.9409487910       -6.6280845148
 C        -0.5012732457       -3.5759037580       -5.7959889267
 O        -0.2245676564       -2.8897566720       -4.7822366400
 C        -1.8905117384       -4.0374590976       -6.1304758601
 C        -3.0462972311       -3.1426565442       -5.6067948327
 C        -3.2480501594       -1.7869119409       -6.3742797101
 O        -2.4637290612       -1.6306950283       -7.3284440567
 C        -4.3654332779       -0.8694450248       -5.9556005003
 C        -4.8198936141       -0.0344045625       -7.1930093646
 O        -4.9915648921        1.1346267269       -7.0253031386
 C        -5.1399690240       -0.5686469469       -8.6881295242
 C        -6.1842568332        0.3627682327       -9.4168752414
 C        -7.5654597285        0.5406587707       -8.6705632091
 O        -7.8168172857       -0.3533611505       -7.8823631961
 C        -8.3160751801        1.9788009809       -8.7296404645
 C        -8.0015489910        2.7493266465       -9.9274820368
 O        -7.9949747337        2.2305393422      -11.0570812641
 C        -7.8576717831        4.2743593859       -9.8612403380
 C        -7.5189360820        4.8860556166      -11.2968177324
 C        -8.5451919775        5.0032287954      -12.4610975940
 O        -9.7329393956        4.8922522874      -12.3351600705
 C        -7.9101728998        5.4699005286      -13.8928561168
 C        -8.5584702996        4.5060426619      -15.0431954496
 O        -9.6691374770        4.7250166812      -15.4883429055
 C        -7.9030423709        3.1102173963      -15.4747761340
 C        -8.7447707605        2.2877378199      -16.4323735769
 C        -9.7777121899        1.4066819427      -15.5306297293
 O        -9.3181063133        0.9395542926      -14.4881927349
 C       -11.2846184238        1.2651264747      -15.8413837730
 C       -11.9404925248        2.2866231039      -14.9368474773
 O       -11.9582241640        3.4624761403      -15.2480378666
 C       -12.6546137510        1.8324237993      -13.6909666595
 C       -12.9698896977        3.0088782226      -12.7426813774
 C       -14.2909920339        3.6726268864      -12.9563935954
 O       -15.1311903250        3.2382406361      -13.7070497788
 C       -14.7493435387        4.8430361379      -11.9306406262
 C       -14.2820499011        6.2153047999      -12.6963450139
 O       -13.0808427147        6.4508770366      -12.6286200139
 C       -15.0930826615        7.1685611414      -13.5084123717
 C       -15.4339220284        6.6580421943      -14.9508073601
 C       -14.3059517256        6.5324584760      -15.9481249904
 O       -13.1629707712        6.3273021807      -15.6412896531
 C       -14.7901627527        6.4833691439      -17.5136321966
 C       -16.2134520038        5.6481257792      -17.7731292372
 O       -16.8017868690        5.1061679936      -16.8950388684
 C       -16.6453289230        5.6897059709      -19.2672372518
 C       -17.1640991779        4.3023643329      -19.7701534769
 C       -16.0801437009        3.6784940482      -20.6769668009
 O       -15.1474290926        3.0521766575      -20.1756299168
 C       -16.3871399829        3.6419236436      -22.2338662420
 C       -16.7562410903        2.1206559899      -22.6406279820
 O       -17.8416782291        1.8009946118      -22.8946274109
 C       -15.4307548567        1.1879662884      -22.8042700701
 C       -17.4975750560        4.6161177071      -22.7234743637
 C       -15.0658461564        4.1149269330      -22.9553530999
 C       -14.9888896636        7.9168977461      -18.1630030479
 C       -13.6133072945        5.7900470830      -18.2607254637
 C       -16.3386307023        4.8196442537      -11.7052527320
 C       -13.9295678716        4.7216658211      -10.5458190233
 C       -11.6569933008        1.6212163221      -17.3434963184
 C       -11.8855078020       -0.1685045086      -15.5735613577
 C        -8.3427518931        6.9194411092      -14.0961398146
 C        -6.4048293190        5.3671329488      -13.9366014848
 C        -9.8325514436        1.7108959203       -8.5190789674
 C        -7.9225163488        2.7044441019       -7.3944634398
 C        -5.7058826532       -1.4630696669       -5.4261150299
 C        -3.6055513186       -0.0391612926       -4.8911761883
 C         1.6612038430       -2.6158186347       -6.9741226977
 C         0.3902183511       -4.5483032357       -8.0366469205
 C         4.2987687184       -6.6492567088       -2.4920093346
 C         6.4674987713       -5.5187011249       -3.2262308962
 C         8.5139638416      -12.8189429981       -2.0140844612
 C         9.3857971521      -11.5523888861       -0.0477257734
 C        14.1562297828       -6.9945586987       -2.7857625149
 C        12.2688071188       -5.4745861455       -3.3120476131
 C        11.6780201400      -10.8057962652       -8.6132782507
 C        10.5116739831       -8.6941688446       -9.4465075437
 H         9.0382145728      -12.1584655770       -8.4573358814
 H         9.2547755014      -11.2490829875       -9.9083921438
 H         7.7586187934      -11.1629702389       -8.9576053719
 H        11.6163605109       -6.8031787830       -8.1971786652
 H        13.1812598735       -7.3768968302       -7.9353001576
 H        11.2524938678       -6.5195583500       -5.7051060475
 H        12.5398933295       -5.4387322208       -6.3610591872
 H        12.9076795104       -9.1177870854       -2.2367197823
 H        12.2182968786       -9.7579758766       -3.6625730044
 H        10.2115769491       -9.0367083163       -1.3545469890
 H        11.3163642034      -10.3161685235       -0.9961510433
 H         6.0791022386      -11.2889664623       -2.3817734566
 H         7.0274029234      -10.6215821242       -3.6031750468
 H         5.2912639470       -9.0136946323       -1.5217180042
 H         4.8106294440       -9.4043019646       -3.2105126631
 H         3.0204195320       -6.9026054463       -4.7446896145
 H         3.7110314551       -6.9067086112       -6.4127234203
 H         3.6525567854       -4.4696161291       -6.6170744736
 H         3.4684794447       -4.2303355916       -4.8687260658
 H        -1.9519542566       -5.0867659939       -5.6034077323
 H        -2.0531509829       -4.1437338818       -7.2651056840
 H        -2.8126133497       -2.8665512948       -4.5651590374
 H        -3.9770811415       -3.6899253832       -5.6044761991
 H        -5.5321452565       -1.6464840368       -8.6968283087
 H        -4.1261747386       -0.6790887532       -9.1944795322
 H        -6.4019247220        0.0368423144      -10.4213526611
 H        -5.7836946255        1.2965086556       -9.8179359886
 H        -6.9947771919        4.4676041696       -9.2119407659
 H        -8.7435759384        4.7591372437       -9.4333370767
 H        -6.6711791528        4.3267541301      -11.7312725752
 H        -7.0663184626        5.9317328320      -11.1425680097
 H        -7.8419192941        2.6436979825      -14.5308742537
 H        -6.9168708941        3.1794924546      -15.8187968663
 H        -8.1519154337        1.4634860521      -16.9142581830
 H        -9.2285073568        2.8504859421      -17.2111978031
 H       -12.0570884677        1.0794126045      -13.1901391704
 H       -13.5650454480        1.2957931972      -13.9572745391
 H       -12.1918989634        3.6785762892      -12.9003992128
 H       -12.7589957992        2.6013681325      -11.7181479806
 H       -14.3460710401        7.9898555807      -13.6855525275
 H       -15.9667353162        7.4247215632      -12.8747502680
 H       -16.2112241831        7.3238413101      -15.3602781130
 H       -15.7473730122        5.6138874222      -14.9711883672
 H       -15.7700552673        5.8588302666      -19.9405744262
 H       -17.4343050745        6.4411882628      -19.4504226739
 H       -18.1054430584        4.4429752415      -20.3106189530
 H       -17.3793129733        3.5270712903      -19.0110020151
 H       -15.8203811698        0.1896811400      -22.7554344491
 H       -14.7128544302        1.3468567856      -22.0296003271
 H       -14.9675582160        1.6176517648      -23.6489128555
 H       -17.5344872707        5.5207634588      -22.0881406197
 H       -18.4966340064        4.2510046517      -22.5856214391
 H       -17.3623061038        4.9383381776      -23.7521255156
 H       -15.1725902210        3.9206661408      -24.0335150825
 H       -14.1680405737        3.4172682756      -22.5956577403
 H       -14.8525113142        5.1554139370      -22.7026443207
 H       -15.8873323341        8.4930387899      -17.8878237890
 H       -15.0980657779        7.6776206847      -19.2144795728
 H       -14.2109269315        8.5795336441      -17.8623915388
 H       -12.6622938091        6.3685751072      -18.2664199334
 H       -13.8417436377        5.7042556374      -19.3056174229
 H       -13.3872238772        4.8179539780      -17.7519185542
 H       -16.6045340368        4.2716308492      -10.8008456305
 H       -16.9132630932        4.3957557698      -12.5396142531
 H       -16.6829330636        5.8345646506      -11.5282681690
 H       -14.1248338655        5.4941199824       -9.7499208352
 H       -12.8905750465        4.9133748544      -10.8102401289
 H       -13.8818334891        3.7627569692      -10.0897362691
 H       -12.7832935346        1.5866678558      -17.2476317669
 H       -11.1289788753        0.9594428853      -17.9693017451
 H       -11.1355993021        2.5276843590      -17.5700453474
 H       -11.5294809454       -0.8910657046      -16.3109339740
 H       -12.9923462064       -0.1465851708      -15.5871836344
 H       -11.5411039536       -0.6532055233      -14.6704284503
 H        -7.6967518090        7.6305978802      -13.4366354366
 H        -9.3731503856        7.0456977300      -13.7931864910
 H        -8.1917962573        7.2202522062      -15.1406134393
 H        -5.9876611429        5.9333631577      -13.0130782387
 H        -6.0635920689        6.0193536536      -14.7423286041
 H        -6.0053396651        4.3890215966      -14.1537854044
 H       -10.3861513520        2.5247293327       -8.2127242009
 H        -9.9000044039        1.1232500216       -7.5048289292
 H       -10.3129944806        0.9542342765       -9.2295406526
 H        -8.3575270874        3.7641033227       -7.2097498784
 H        -6.8358125691        2.8053492251       -7.3893241728
 H        -8.2835531535        2.1035360974       -6.6191447737
 H        -6.0500478393       -2.2113344272       -6.1331926216
 H        -6.4861945271       -0.7023825187       -5.3534515395
 H        -5.5011281583       -1.9307340963       -4.5202791098
 H        -4.3141561285        0.4913977900       -4.2752495937
 H        -2.9580506714        0.7285933783       -5.4141697170
 H        -3.2014330548       -0.7755940662       -4.1386186238
 H         1.1693468663       -1.9759866790       -7.7393499447
 H         2.6987379950       -2.8564741296       -7.2623064306
 H         1.6951516748       -1.9800206650       -6.0217162581
 H         1.1989160505       -4.4572549613       -8.7038819413
 H        -0.4465951001       -4.1341021357       -8.4919494145
 H         0.0848935378       -5.5279296808       -7.8704158190
 H         4.5166888824       -6.7475438486       -1.4849524102
 H         3.5473285916       -7.4187967890       -2.7237480034
 H         3.7583558461       -5.6809388075       -2.5532343109
 H         6.9986301687       -5.2988123649       -4.1902435940
 H         6.9161692377       -5.7332304764       -2.3015470104
 H         5.8938273913       -4.5798228285       -3.1076094741
 H         8.9407015544      -13.6197252502       -1.4920868158
 H         8.7814705781      -12.8426834560       -3.0565422772
 H         7.4504550306      -13.0114282486       -1.6751585835
 H         9.6828640275      -10.6160933503        0.4505169520
 H        10.1745464728      -12.3044188862       -0.1051257562
 H         8.6068420520      -12.0126935572        0.5806903404
 H        14.7367802890       -6.1134804784       -2.8416234993
 H        14.8022897125       -7.7774501548       -3.2648356190
 H        14.0387324141       -7.1689867073       -1.7715327304
 H        12.2920275942       -5.3007037634       -2.2239400833
 H        11.2453154735       -5.3708370525       -3.6623448826
 H        12.8561082257       -4.6537029275       -3.8084709320
 H        11.3086102093      -11.7420132840       -8.2167358444
 H        12.6629020660      -10.5664615724       -8.3480008067
 H        11.7102755380      -10.9400874882       -9.6938879553
 H        11.4795627675       -8.2417199789       -9.7413497986
 H         9.9581757515       -7.8646513848       -9.0445446767
 H        10.0617081372       -9.2504839628      -10.2230189104
 Na        9.1319056541       -9.1916139326       -4.7253081761
 Na      -11.6148048587        5.5032344030      -14.1005253706
