232

 C         8.8496708432      -11.2746311910       -9.3060808896
 C         9.5006840472      -10.3810290734       -8.1118192448
 O         8.9324675074      -10.2419458983       -7.0246517286
 C        10.8977240433       -9.5332363382       -8.4667301869
 C        11.1829082865       -8.6034828213       -7.2530545856
 O        11.1191006302       -9.1884267605       -6.1878647422
 C        11.7271945178       -7.1689547510       -7.3519582799
 C        11.8997641126       -6.4140336638       -6.0318421495
 C        13.1165230453       -6.9175005843       -5.0840306597
 O        14.0998731862       -7.4415249515       -5.5172551964
 C        12.8073031906       -6.7143389752       -3.5261624516
 C        11.7555136024       -7.9033026237       -3.3316365318
 O        10.5674250710       -7.7554586268       -3.5201725962
 C        12.1773745529       -9.3575451018       -2.7801704496
 C        11.2364670213       -9.8735787499       -1.7290825072
 C        10.0303721286      -10.7022057402       -2.3648179321
 O         9.9925796755      -10.8956410607       -3.5586877951
 C         8.8941162642      -11.2349427109       -1.4776483776
 C         7.7209646130      -10.1573959497       -1.7722834843
 O         7.6828027764       -9.0426266376       -1.2482458277
 C         6.7915294258      -10.4360423010       -2.9049929919
 C         5.9209465024       -9.2483903785       -3.1958080492
 C         6.5392557403       -7.8451476909       -3.4844155362
 O         7.7598489633       -7.7684303451       -3.8173916122
 C         5.5979129584       -6.6448513137       -3.3699692205
 C         5.2892769878       -6.4129609214       -4.9801845377
 O         6.1799836435       -6.0964349414       -5.6942054566
 C         3.7907542444       -6.4943771853       -5.5539266032
 C         3.1376773214       -5.0942306211       -5.6450011164
 C         1.5465301877       -5.1411808170       -5.6975795697
 O         0.8901469712       -6.0851484729       -5.2754749894
 C         0.8985695920       -3.9541155757       -6.4709251957
 C        -0.4370191604       -3.3951134395       -5.8258990197
 O        -0.2450011702       -2.5388013995       -4.9478823504
 C        -1.8065625611       -3.8263784466       -6.2081394501
 C        -2.9122285842       -2.9663614789       -5.5923562286
 C        -3.3207414181       -1.7861714616       -6.5627118738
 O        -3.0087745168       -1.7767682583       -7.7501906899
 C        -4.3771157250       -0.8283518057       -5.9153606118
 C        -4.9222148850        0.0739806216       -7.0989147680
 O        -4.8072092051        1.2610983135       -7.0145626456
 C        -5.3141960247       -0.6564660629       -8.4615797348
 C        -6.2374046465        0.2098859983       -9.3651065720
 C        -7.5080318858        0.5589236058       -8.5866266508
 O        -8.0953529991       -0.1962703713       -7.8155448185
 C        -8.2085128324        1.9027596021       -8.6857448197
 C        -7.9586063492        2.5191333323      -10.0441739243
 O        -8.0083186961        1.8934910719      -11.0879168147
 C        -7.9072019639        4.0970545159      -10.1205657658
 C        -7.3662623049        4.6739231177      -11.4838641325
 C        -8.5088326160        4.8904861101      -12.5632687576
 O        -9.6924004655        4.7317639548      -12.3725003366
 C        -7.9774615654        5.3895145715      -14.0362568701
 C        -8.6744595730        4.4841374902      -15.0963035356
 O        -9.7825647296        4.7403069050      -15.5146838674
 C        -8.0143594403        3.1242079892      -15.4912650840
 C        -9.0661480446        2.3451427429      -16.3360745391
 C        -9.9830698624        1.5403186558      -15.3547932520
 O        -9.4867140973        1.0944974208      -14.3214696462
 C       -11.4679860988        1.2147298499      -15.7385169029
 C       -12.2850093675        2.2007375063      -14.8883081364
 O       -12.5516510038        3.3346469469      -15.2602792093
 C       -12.6925711570        1.6915433773      -13.5501500960
 C       -13.2208621310        2.7164939668      -12.4626328431
 C       -14.3993611962        3.5597258990      -12.9480478156
 O       -15.0746426146        3.3109671653      -13.9059693696
 C       -14.7967634602        4.9561073484      -12.0478674694
 C       -14.0318918078        6.1191095562      -12.6644635317
 O       -12.8147654186        6.1597343211      -12.6668372123
 C       -14.7772511715        7.2252266929      -13.5060425083
 C       -15.3429380287        6.6164121104      -14.8414664600
 C       -14.2719490190        6.5626929506      -15.8597164971
 O       -13.1074769027        6.5364805771      -15.5420894582
 C       -14.6799878572        6.6474074883      -17.4467556032
 C       -16.1482496671        5.8067131617      -17.8003506350
 O       -16.7942902715        5.2867687072      -16.9202947355
 C       -16.5549705433        5.6857427395      -19.2612021534
 C       -16.9695779805        4.2528489037      -19.6794896370
 C       -16.0097946362        3.5330971196      -20.5802189026
 O       -14.9455590343        3.0801306653      -20.1975071788
 C       -16.3417734534        3.6350817240      -22.1149259677
 C       -16.7577209808        2.1647519917      -22.4956253094
 O       -17.8710594295        1.8965611252      -22.6619980539
 C       -15.6476017832        1.0944419012      -22.3725144396
 C       -17.5159811810        4.5325544058      -22.5335356793
 C       -15.0012938627        4.1229766471      -22.7419574565
 C       -14.9620998038        8.2024701598      -17.6716554529
 C       -13.4642254915        6.0795410040      -18.2795374476
 C       -16.3677145144        5.2722547755      -12.1747373278
 C       -14.4293390157        4.8226124169      -10.5284458573
 C       -11.6263451867        1.4979717223      -17.3039667200
 C       -11.6382080588       -0.2404107973      -15.4292561775
 C        -8.4967850096        6.9040098559      -14.1157169917
 C        -6.4848106315        5.3561615477      -14.2530840645
 C        -9.7441497866        1.6579368215       -8.6572437606
 C        -7.8035911877        2.7312269323       -7.4040589980
 C        -5.6252294008       -1.6667789365       -5.4641732427
 C        -3.8541789803        0.1096376456       -4.8280411561
 C         1.9295200665       -2.7553418248       -6.6061722641
 C         0.6568212439       -4.5272787177       -7.9152429459
 C         4.2338830557       -6.8032926963       -2.5829330744
 C         6.3955497740       -5.4420855605       -2.7995661413
 C         8.4056383799      -12.6760918261       -1.8424557735
 C         9.2110437428      -11.3582371950        0.0029411784
 C        14.1449231254       -6.9945050629       -2.7315762618
 C        12.3184430651       -5.2854233642       -3.1659959939
 C        12.0847264307      -10.4889284434       -8.4459197330
 C        10.8411071461       -8.8930774303       -9.9209517282
 H         7.8314867880      -11.5211879680       -8.9501825895
 H         9.3287459644      -12.2118210510       -9.6019598152
 H         8.6491653278      -10.6520621582      -10.2564964396
 H        11.2174883071       -6.6392459067       -8.2656336228
 H        12.7855159469       -7.3725363207       -7.6532479758
 H        10.9661142727       -6.4717431151       -5.4857233460
 H        12.2803827049       -5.4337074044       -6.3149898614
 H        13.1919627584       -9.4229001128       -2.4430811475
 H        12.1437788693       -9.9975087925       -3.7582362417
 H        10.5959108325       -9.0535929376       -1.2567409358
 H        11.8478257183      -10.3307397367       -0.9408696192
 H         6.2019207031      -11.2871595770       -2.7426381600
 H         7.4274942143      -10.7102592785       -3.8235358549
 H         5.1400821387       -9.2201668579       -2.4148912842
 H         5.4116594880       -9.5221652499       -4.1461809923
 H         3.1201026928       -7.1565880292       -4.9485756112
 H         3.7733607876       -6.9676345296       -6.5317193185
 H         3.4754382687       -4.5555158245       -6.5347781323
 H         3.3423193063       -4.5271887120       -4.8014810853
 H        -1.9365024806       -4.8798070671       -6.1273945205
 H        -1.8400828267       -3.6704509844       -7.3054052868
 H        -2.5801776246       -2.6279659814       -4.6029452159
 H        -3.8203672461       -3.5232855149       -5.5161887351
 H        -5.6934901682       -1.6232273698       -8.2176534294
 H        -4.3450677149       -0.9079639895       -9.0445000671
 H        -6.4983559417       -0.2510629023      -10.3328489987
 H        -5.7892866585        1.0263762270       -9.8757407820
 H        -7.2760094733        4.6089721016       -9.2789920708
 H        -9.0041791985        4.3141469191      -10.0676591448
 H        -6.5604163986        4.2129120532      -11.9213771583
 H        -6.9445831651        5.6446401144      -11.2818681632
 H        -7.5030625615        2.6256808414      -14.5837842576
 H        -7.1945964748        3.4365567629      -16.1954519081
 H        -8.5307984185        1.6088159053      -16.9197998997
 H        -9.6729048568        2.9447209687      -16.9431444837
 H       -11.8477070302        0.9973689518      -13.1428199485
 H       -13.4103291417        0.8938614697      -13.7862427295
 H       -12.2975882349        3.3428636063      -12.1947872842
 H       -13.3476599623        2.1545857919      -11.4564848707
 H       -13.9817234438        7.9732748185      -13.6736992276
 H       -15.6060920729        7.6498472663      -12.9419929836
 H       -16.0512747684        7.3875204618      -15.2953336891
 H       -15.9132916458        5.6808551166      -14.8031982705
 H       -15.7879928358        6.1431496022      -19.9011686969
 H       -17.4156428098        6.3208067775      -19.4131396796
 H       -17.8877863584        4.2018198825      -20.1801761491
 H       -17.1847868677        3.7116525312      -18.7578295196
 H       -16.2298478334        0.2766892804      -22.0107352668
 H       -14.9134276512        1.4530274824      -21.5873763841
 H       -15.0225627559        1.1261136120      -23.3026123091
 H       -17.3821307931        5.6250990714      -22.2182411706
 H       -18.4993548823        4.3041586572      -22.1726928229
 H       -17.5352776126        4.5695684750      -23.6117700401
 H       -14.9337110515        3.7897294405      -23.6829979588
 H       -14.1883408561        3.5808189578      -22.2126426301
 H       -14.9079226409        5.1623604037      -22.6063680900
 H       -15.9111377840        8.4738458021      -17.2277939420
 H       -14.9526323358        8.3907184793      -18.7956429371
 H       -14.1734005882        8.8886570150      -17.2225737079
 H       -12.5436835377        6.5290808298      -18.0192979331
 H       -13.5759731585        6.4195765950      -19.2634491241
 H       -13.3203336107        5.0057859374      -18.0899562811
 H       -16.8883088436        4.3518305481      -11.8070514046
 H       -16.7577471755        5.5501146077      -13.1966532637
 H       -16.5521550254        6.0779780320      -11.4814806776
 H       -14.6685584911        5.8015119077      -10.0384370712
 H       -13.3208358703        4.6479636819      -10.4153039534
 H       -14.9164552156        4.1339564230       -9.8967151402
 H       -12.6554616505        1.0494382377      -17.5669795183
 H       -10.8417943288        0.9007426473      -17.7861904724
 H       -11.5249766631        2.5352552717      -17.4539219654
 H       -10.9312985338       -0.7973910717      -16.0201526721
 H       -12.5993040811       -0.5948087186      -15.7105478226
 H       -11.4302206070       -0.5578155490      -14.3940430266
 H        -7.8119590546        7.6287256210      -13.6325773237
 H        -9.3163420138        6.9193848064      -13.5168921610
 H        -8.7499780816        7.2743982757      -15.0871057310
 H        -5.9065483166        6.1495726051      -13.7318293028
 H        -6.3369552762        5.4704385745      -15.2868377118
 H        -6.0700295796        4.4007097246      -14.0024153565
 H       -10.2534072391        2.5530354630       -8.5639727155
 H       -10.0362698667        1.0143755453       -7.8112046984
 H       -10.1192994092        1.0686009385       -9.4995798369
 H        -8.4272860009        3.6555998787       -7.4687222776
 H        -6.8034766297        3.1603935516       -7.3466307730
 H        -8.1614115474        2.1662762072       -6.5474525691
 H        -6.1197001024       -2.0638472592       -6.3945757287
 H        -6.2967534448       -0.9076864522       -5.0583402466
 H        -5.4568316991       -2.3863484844       -4.6541914179
 H        -4.3091604144        1.0668920642       -4.9135007718
 H        -2.7898385663        0.3018933962       -5.0532968638
 H        -4.0785723595       -0.2260630364       -3.8336106613
 H         1.3529909252       -1.8942611889       -6.9689659717
 H         2.5727428472       -3.0306007740       -7.3619549623
 H         2.5204163943       -2.4940330443       -5.7581741825
 H         1.5532201110       -5.0032333143       -8.4293519911
 H         0.3418870954       -3.5900768442       -8.4945993100
 H        -0.2734991949       -5.1360595765       -7.9645617227
 H         4.2352391363       -6.9282299169       -1.4912111234
 H         3.8036955151       -7.7077733989       -2.9168650217
 H         3.5210279722       -5.9601400544       -2.8253477126
 H         7.3932380218       -5.4320942103       -3.2800831326
 H         6.3599730757       -5.4710412047       -1.7175139627
 H         5.8820985076       -4.4916466830       -3.0944026502
 H         9.2232513824      -13.3860496245       -1.8305131347
 H         7.9765718692      -12.6791237731       -2.8817322016
 H         7.6774115337      -13.0161109147       -1.0685078700
 H         9.2782856091      -10.3556232878        0.4425445499
 H        10.1429717221      -11.8665395482        0.2724576945
 H         8.3350719642      -11.8128020891        0.4394755206
 H        14.9254094365       -6.1906897402       -2.8409821779
 H        14.6534276341       -7.9642095745       -3.0484053424
 H        14.0068692807       -7.0312560809       -1.6734986683
 H        12.1787018440       -5.2159915676       -2.0943324526
 H        11.4788116730       -5.0148327416       -3.7255995112
 H        13.0405659702       -4.5380998089       -3.5179362409
 H        12.4537223489      -10.7852616353       -7.4381048007
 H        12.9008204003      -10.0179160265       -9.0135708731
 H        11.8152606747      -11.4224432828       -8.9632760684
 H        11.8015176537       -8.3224063681      -10.0272697911
 H        10.0044299118       -8.1375970240       -9.9685514463
 H        10.6644203223       -9.6477805132      -10.7373534633
 Na        9.2877343184       -8.9587967421       -5.0223399141
 Na      -11.4961250130        5.1631256867      -14.1899851177
