232

 C         9.0057425737      -11.1606833626       -9.3422013923
 C         9.5372285094      -10.3229177143       -8.2828898638
 O         9.0473479191      -10.3502505778       -7.1824738577
 C        10.8728706515       -9.5665515255       -8.5466100336
 C        11.1652945423       -8.5934521112       -7.2879841851
 O        11.2028123571       -9.0534756781       -6.1549602461
 C        11.7548006652       -7.1313394203       -7.3631890078
 C        11.7524266832       -6.4904532703       -5.9253072949
 C        12.8597160154       -7.0438989724       -5.1114691747
 O        13.8716132811       -7.4771888288       -5.6241004623
 C        12.7997311520       -6.9258538722       -3.4985851764
 C        11.7502928346       -7.9230528293       -3.1419077404
 O        10.5947167964       -7.5935219998       -3.4009543664
 C        12.2015713750       -9.3174653291       -2.8274471088
 C        11.2909707324       -9.9036916928       -1.7643957521
 C        10.1037402770      -10.6153180142       -2.3563580560
 O        10.0779482208      -10.9101261235       -3.5313215760
 C         8.8203090401      -11.1845676791       -1.4314699512
 C         7.6897165897      -10.1024059290       -1.8480226255
 O         7.6601357203       -9.0674724349       -1.2190007950
 C         6.8186008367      -10.4297116456       -3.1731261864
 C         5.8317449435       -9.2884657932       -3.4520580918
 C         6.5000544803       -7.8564541076       -3.5332853799
 O         7.6283152824       -7.6234755174       -3.9323843264
 C         5.5579964508       -6.7152878726       -3.4629478499
 C         5.2712800956       -6.2923784057       -4.9239919554
 O         6.2196472377       -5.9711559747       -5.6239353040
 C         3.8785086330       -6.5390036422       -5.4517545607
 C         3.1264999149       -5.1614256217       -5.5306470064
 C         1.5848190905       -5.2082190624       -5.7187602150
 O         0.9114501572       -6.0461374156       -5.2153723719
 C         0.9516153762       -3.8858709546       -6.5734376848
 C        -0.3212220261       -3.3155621125       -5.7912528406
 O        -0.2293390804       -2.4395506528       -4.9077310168
 C        -1.6774081026       -3.7679079162       -6.2725738055
 C        -2.8573422198       -2.9883787684       -5.5924587224
 C        -3.4653770002       -1.8502336482       -6.5228483174
 O        -3.0505481875       -1.8287320976       -7.6654382607
 C        -4.4165011826       -0.8321778315       -6.0223384923
 C        -4.8269934399        0.1072328654       -7.2532298507
 O        -4.7957244750        1.3151012480       -7.1433097814
 C        -5.3472082026       -0.6206123671       -8.4706876253
 C        -6.3365268743        0.2746979466       -9.2571482136
 C        -7.6702477966        0.5040682143       -8.5400909366
 O        -8.0081105937       -0.3657316883       -7.7930576584
 C        -8.4118464863        1.9570980351       -8.7538165139
 C        -8.0745194377        2.5277831508      -10.1669532420
 O        -7.7791669979        1.7370930486      -11.0732789597
 C        -8.0396806364        4.1068015220      -10.2983109841
 C        -7.3825635376        4.6925072224      -11.5742268203
 C        -8.3837359857        4.8100002075      -12.6659212906
 O        -9.5927577550        4.7476271393      -12.4800314462
 C        -8.0102452990        5.3598590551      -14.0587119943
 C        -8.7981571001        4.4215496858      -15.0446501467
 O        -9.8952560037        4.7236689564      -15.5512445205
 C        -8.0584076061        3.1417747857      -15.6121858667
 C        -9.1165169800        2.3095764839      -16.3743428601
 C        -9.9556623970        1.4786588032      -15.3055257373
 O        -9.5179040579        1.2977921250      -14.1974458622
 C       -11.4436622283        1.1172126254      -15.7697751832
 C       -12.3926429839        2.1191417417      -14.8216079379
 O       -12.6422881196        3.2679595407      -15.1228052778
 C       -12.7967629591        1.6313607906      -13.3842785678
 C       -13.2537152949        2.7793366895      -12.4595382769
 C       -14.4034120445        3.6240761289      -12.9308068305
 O       -15.0627050576        3.3673306299      -13.8888492977
 C       -14.8979003534        4.9974579882      -12.1210098787
 C       -14.0014117398        6.1251343434      -12.8023649522
 O       -12.7907184544        5.9622238943      -12.6337907197
 C       -14.7341140086        7.2458832953      -13.4815556427
 C       -15.2428927189        6.7522914150      -14.8325123156
 C       -14.1234053419        6.5825771554      -15.8691816856
 O       -12.9312174646        6.4307668970      -15.6970326416
 C       -14.7550242212        6.7033929576      -17.3375534584
 C       -16.0149634009        5.8564920819      -17.6918352331
 O       -16.7407556692        5.2867558493      -16.9653682595
 C       -16.4187757701        5.7728577806      -19.2126636821
 C       -16.9308143691        4.3037331278      -19.4806938740
 C       -15.9451997939        3.6692148062      -20.4984004965
 O       -14.9211807731        3.0846493671      -20.1693766974
 C       -16.2787859319        3.6286507303      -22.0555283985
 C       -16.7291430093        2.1186971402      -22.3556488832
 O       -17.9301484252        1.8871995551      -22.6284373878
 C       -15.6846567191        0.9606777742      -22.3040867216
 C       -17.4329009046        4.5286030660      -22.5092492783
 C       -14.9609071274        4.1431688701      -22.7581433111
 C       -14.8845275489        8.2041006199      -17.4970791288
 C       -13.6258690093        6.2233921766      -18.3194971124
 C       -16.3757828448        5.2266173726      -12.1580491561
 C       -14.5415252777        4.7184501567      -10.6327078225
 C       -11.6318702881        1.4653310960      -17.2908344795
 C       -11.8321090316       -0.3098009812      -15.4450823367
 C        -8.4878964149        6.8694491971      -14.0298768342
 C        -6.4844123405        5.4734491722      -14.3288042048
 C        -9.9136126274        1.7388050968       -8.5718226098
 C        -7.8955335635        2.8654414223       -7.5659647591
 C        -5.6535330672       -1.6506640433       -5.4032569290
 C        -3.7879340583       -0.0840498343       -4.8155148312
 C         2.0267342448       -2.7909613848       -6.5180043375
 C         0.6752108427       -4.5154721672       -7.9088835115
 C         4.3211302297       -6.9070909897       -2.6061989813
 C         6.3741928554       -5.4037652698       -2.8641632426
 C         8.4915310550      -12.6368324085       -1.8112512332
 C         9.2794050919      -11.2388340982        0.0771007905
 C        14.1957690630       -6.9399274196       -2.8270135169
 C        12.2939417888       -5.5286660284       -3.2692521818
 C        12.1811688241      -10.5844152446       -8.4283650108
 C        10.8629868607       -8.8387249997       -9.8884029251
 H         7.9189447434      -11.2387297901       -9.1394208947
 H         9.3997315827      -12.1735897288       -9.2130341363
 H         9.1871013774      -10.8131638405      -10.3748329328
 H        11.2550435694       -6.5350733060       -8.0689069340
 H        12.8125022176       -7.2157618066       -7.6561627038
 H        10.8260030046       -6.5748037055       -5.4463703553
 H        12.1479389602       -5.5273868517       -6.1250823365
 H        13.2692301240       -9.2596950266       -2.5713025184
 H        12.1263576438       -9.9298956288       -3.7718378916
 H        10.8960880695       -9.1911349966       -1.0824900547
 H        11.8392251835      -10.6024040743       -1.1978464786
 H         6.2899249495      -11.3781951101       -2.9395874575
 H         7.4610038917      -10.6263375704       -4.0495327535
 H         5.0290973939       -9.3188224219       -2.6904486704
 H         5.3334991448       -9.4341535550       -4.4440982218
 H         3.3851038951       -7.2845943284       -4.8856786192
 H         3.8803605826       -7.0195403336       -6.4419212236
 H         3.5236731627       -4.6143230368       -6.4149987380
 H         3.2506090881       -4.5810963390       -4.6181120672
 H        -1.7340871073       -4.8875441781       -5.9012204657
 H        -1.6730986950       -3.9305709047       -7.3868473848
 H        -2.2830974170       -2.5103061244       -4.8122282093
 H        -3.5623286053       -3.6350688668       -5.1600772733
 H        -5.7875491489       -1.6673882814       -8.0528408699
 H        -4.5555862065       -0.9441538764       -9.1690079501
 H        -6.5082444731       -0.2083860808      -10.2054733354
 H        -5.9110773206        1.1435279723       -9.7501157985
 H        -7.2525420187        4.3363163933       -9.5554442334
 H        -9.0659972171        4.5405943631      -10.0434874965
 H        -6.5663139130        4.1255733109      -11.9785456672
 H        -6.8803371969        5.6272967925      -11.4389647691
 H        -7.7168996783        2.5656549137      -14.7839141052
 H        -7.1965573973        3.4642771729      -16.2021079124
 H        -8.5854622894        1.5958642247      -16.9815348342
 H        -9.8452620599        2.8730285259      -16.8976217598
 H       -11.9511034884        1.0835513303      -12.9793686802
 H       -13.5656745883        0.7855253873      -13.3784140008
 H       -12.3871425473        3.3143562570      -12.1438485651
 H       -13.5285286261        2.2632966208      -11.4339336468
 H       -14.0396775460        8.1471860216      -13.5195726520
 H       -15.5787155271        7.5013578183      -12.7910887617
 H       -16.1297362781        7.2995649334      -15.2072799086
 H       -15.6023889086        5.6874434117      -14.8095686314
 H       -15.7239566154        6.1604387403      -19.9774879254
 H       -17.1987834906        6.5201444672      -19.3246196947
 H       -17.9125501453        4.1286386533      -19.8802017538
 H       -16.9927799410        3.8401923818      -18.5241404624
 H       -16.3892618084        0.0889270476      -22.0730761096
 H       -14.9671115598        1.1078185771      -21.4884721161
 H       -15.1432182537        1.0341310188      -23.2301613632
 H       -17.1858291466        5.5708687759      -22.4215459660
 H       -18.3679700542        4.4720499556      -21.9725346029
 H       -17.6806991893        4.3924674392      -23.5680463917
 H       -15.2215101511        4.0873123858      -23.8353556537
 H       -14.0834328015        3.5087930863      -22.6047393711
 H       -14.8645416140        5.0909397760      -22.3887051395
 H       -15.5535388708        8.7283613117      -16.7288779394
 H       -15.1953150606        8.3917772038      -18.5380208335
 H       -13.8480053730        8.6434061732      -17.4670061010
 H       -12.6754300983        6.7427149943      -18.1048588318
 H       -13.8324476713        6.5337123489      -19.3074413987
 H       -13.4189785424        5.1899728875      -18.1261573179
 H       -16.9227745915        4.3286860100      -11.8010240484
 H       -16.7022640258        5.5301895313      -13.1449899857
 H       -16.5223972459        6.0911622257      -11.4342508977
 H       -14.8633570982        5.6094852939       -9.9823688500
 H       -13.4901650007        4.5274719652      -10.4903502944
 H       -15.0821726285        3.9135189361      -10.0865354003
 H       -12.3713357148        0.7061240082      -17.6042419251
 H       -10.7552949487        1.1811270205      -17.8284375231
 H       -12.0538705829        2.5624709277      -17.3684665403
 H       -11.1645047559       -1.0493567120      -15.8719485544
 H       -12.8477336590       -0.5840652286      -15.7845003597
 H       -11.8114299270       -0.4626475526      -14.4030685139
 H        -8.0313782354        7.4122553675      -13.2090095645
 H        -9.5638923098        6.9277581449      -13.8253336311
 H        -8.2752693010        7.4022870623      -14.9069535512
 H        -5.8689367995        5.9211885217      -13.5031918523
 H        -6.3537356210        6.0463343219      -15.2177522452
 H        -6.0481588248        4.5278668292      -14.5104589847
 H       -10.4916415620        2.6530053825       -8.5029360249
 H        -9.9881508354        1.1372667455       -7.6273119799
 H       -10.5203843138        1.1012652097       -9.2818559734
 H        -8.5952266090        3.8037012323       -7.3704460489
 H        -6.9458946470        3.4178870637       -7.7978784961
 H        -7.8463790898        2.2504633696       -6.7119620257
 H        -5.9606916708       -2.3689637821       -6.1389000510
 H        -6.5014597903       -0.9619422909       -5.1674020151
 H        -5.3726624090       -2.0580892245       -4.4684634396
 H        -4.2984865270        0.8474714827       -4.7393959471
 H        -2.7358153116        0.1528814921       -4.9585014135
 H        -4.0559977986       -0.6187315641       -3.7673596965
 H         1.5313230188       -1.9070271957       -6.7858803835
 H         2.8748569616       -2.9598959803       -7.1696509944
 H         2.4371703460       -2.7140001775       -5.4690058554
 H         1.6652579898       -4.7793043799       -8.3684523543
 H         0.2035483305       -3.8187563459       -8.5393924968
 H         0.0093695969       -5.4010186055       -7.8600168127
 H         4.5683399334       -7.2032909802       -1.6594288901
 H         3.7804234693       -7.8155359150       -2.9732784492
 H         3.6597472222       -6.0437407049       -2.5580559073
 H         7.4710286544       -5.4827226373       -3.2555077589
 H         6.2866763866       -5.4931312912       -1.7556943941
 H         5.9251755999       -4.4218525685       -3.1403068365
 H         9.3294329147      -13.2894439877       -1.6314601742
 H         8.4058395645      -12.5272898073       -2.9001921014
 H         7.5207394131      -13.0955334321       -1.3345790732
 H         9.7034120955      -10.2821989454        0.4668277036
 H        10.1835258363      -11.8830794032        0.0922895881
 H         8.4857153773      -11.6283170598        0.7736742871
 H        14.6687432076       -5.9891175317       -2.9056655768
 H        14.9266478814       -7.6970422018       -3.2339425877
 H        14.1663234980       -7.0972437239       -1.7452956897
 H        11.9848700456       -5.4434588643       -2.2568008458
 H        11.5142054495       -5.3084022664       -3.9729928829
 H        13.0059981257       -4.7503029633       -3.5110500018
 H        12.3613634556      -10.8546152341       -7.4020769161
 H        13.0642869280      -10.1871388980       -8.8244070584
 H        11.9124461048      -11.4998162409       -8.9520087361
 H        11.5034175072       -7.8802348630       -9.8126623825
 H         9.8239920444       -8.5961025237      -10.2545225572
 H        11.2391115256       -9.5496634471      -10.6251784070
 Na        9.2380401095       -8.9403697400       -4.8794843518
 Na      -11.5188753323        5.1760324203      -14.1771367583
