232

 C         9.1510285292      -11.1483107281       -9.5246231078
 C         9.6740983502      -10.3580828686       -8.2343403107
 O         9.0914838889      -10.3112555307       -7.1783247743
 C        11.0588644959       -9.4568846927       -8.4743889140
 C        11.4009424771       -8.5626435078       -7.2328182574
 O        11.1655305296       -9.0430012789       -6.1149869464
 C        11.7054804889       -7.0692108133       -7.4482954139
 C        11.5848422265       -6.4905718820       -6.0259474378
 C        12.8594435600       -7.0277261594       -5.2267943079
 O        13.7714823697       -7.6555382012       -5.7220542269
 C        12.8163458043       -6.7914170569       -3.6235145007
 C        11.7747618060       -7.9336201497       -3.1469442701
 O        10.6077785478       -7.5888425322       -3.1716930386
 C        12.1794485760       -9.3765594023       -2.7665940951
 C        11.2678181602      -10.0573656963       -1.6440463437
 C        10.1280107986      -10.7406493882       -2.3301020454
 O        10.0192974320      -10.8767439287       -3.5528720282
 C         8.9623486450      -11.1555191531       -1.5531225383
 C         7.7727325176      -10.1261528035       -1.8619315181
 O         7.5115942518       -9.1398835967       -1.2685434688
 C         7.0460813467      -10.3814467239       -3.1567152867
 C         5.9259851460       -9.3051161519       -3.6295381813
 C         6.4358946346       -7.8970220839       -3.6658421669
 O         7.5464425104       -7.7097655446       -4.0668379188
 C         5.4956336338       -6.6808706588       -3.3867595036
 C         5.2516184185       -6.2710307754       -4.9545285462
 O         6.1457285292       -5.7987994047       -5.6467744534
 C         3.8264404897       -6.5737825757       -5.5117305595
 C         3.1886564009       -5.1601694026       -5.4478203137
 C         1.6406605216       -5.1217893154       -5.6055733926
 O         0.8895947314       -5.9874976035       -5.2423087753
 C         1.1009387775       -3.8974314550       -6.4681521467
 C        -0.1949611822       -3.3103579083       -5.7756248189
 O        -0.0763321786       -2.4555606340       -4.9699849442
 C        -1.6663904085       -3.7819029880       -6.2135861231
 C        -2.7642687432       -2.9919535990       -5.5168929245
 C        -3.3282374254       -2.0235424652       -6.5565262138
 O        -2.9815291982       -1.9529206314       -7.7032110651
 C        -4.4723301823       -0.9234554569       -6.0145161032
 C        -4.9098597610        0.0937428836       -7.2131489684
 O        -4.7471596982        1.3108470214       -7.2302598242
 C        -5.4654269472       -0.5515225334       -8.4961212999
 C        -6.3572056624        0.3719084847       -9.2574204227
 C        -7.6964249593        0.4820335365       -8.4853508447
 O        -8.1600116194       -0.3587413369       -7.7399732635
 C        -8.5133906745        1.8499642020       -8.6920046379
 C        -8.0922014063        2.4755772406      -10.1878072756
 O        -7.6559894091        1.8186230079      -11.0918073413
 C        -8.0604932991        4.0370621789      -10.3535256045
 C        -7.4198108307        4.5158918298      -11.6295886877
 C        -8.4674037559        4.8000225209      -12.7486025520
 O        -9.6409072589        4.6566666662      -12.5195770751
 C        -8.0229253224        5.4109006484      -14.2399221741
 C        -8.7013916914        4.5727048374      -15.2548713990
 O        -9.8718518307        4.7706967744      -15.4912510475
 C        -8.0825953729        3.2357611676      -15.7014810645
 C        -9.0751896595        2.2312058341      -16.2869754294
 C       -10.0472846827        1.5886677661      -15.2789738196
 O        -9.7069072444        1.4036216187      -14.1627855304
 C       -11.5665107233        1.1193164258      -15.6389748816
 C       -12.3301025344        2.0720394224      -14.6749080723
 O       -12.5890588896        3.1683703309      -15.1553620924
 C       -12.8765029634        1.6442543065      -13.2632245854
 C       -13.3023847209        2.8583434926      -12.4547763041
 C       -14.5620241751        3.6238729771      -12.9580200083
 O       -15.1540243791        3.3572704919      -13.9979533784
 C       -14.9787691557        4.8654177950      -12.0880282144
 C       -13.9943825625        6.0472606813      -12.6124324761
 O       -12.7706706285        5.9677962550      -12.5740885131
 C       -14.5735810351        7.1646174362      -13.3665467637
 C       -15.0807732688        6.7957243552      -14.7565461114
 C       -14.1165147887        6.4667274657      -15.9920636525
 O       -12.9024675096        6.3108838219      -15.8015305575
 C       -14.6102530509        6.8111396314      -17.4056420910
 C       -15.9777461064        5.9593379970      -17.6688060985
 O       -16.5329432486        5.3851410654      -16.7094886743
 C       -16.3814925489        5.8193899165      -19.1370553456
 C       -16.8060017155        4.3865589209      -19.4442812092
 C       -15.9210151974        3.6923172680      -20.5117905436
 O       -14.9540970344        3.1502399203      -20.0172917839
 C       -16.2193743117        3.6613502272      -22.0309571331
 C       -16.6957300889        2.0640736454      -22.2625418077
 O       -17.8970741006        1.9277879152      -22.5630034812
 C       -15.7131611938        0.9033313866      -22.2412517928
 C       -17.3776459017        4.5637557327      -22.4016421054
 C       -14.9825025083        3.9854651103      -22.8426575589
 C       -14.8972661814        8.3026249941      -17.4926467338
 C       -13.5491567729        6.3193824919      -18.4462439360
 C       -16.4803901021        5.0651811204      -12.1651214490
 C       -14.5076364797        4.6828489716      -10.6346497160
 C       -11.8586406798        1.4067590820      -17.1325927511
 C       -11.9333253711       -0.3883822620      -15.4441614185
 C        -8.5948979442        6.7846180176      -14.1057912523
 C        -6.4439186454        5.4630236934      -14.4122868516
 C       -10.0614614458        1.7569674738       -8.5032304949
 C        -7.9753396163        2.8903195133       -7.7737834367
 C        -5.8001039030       -1.5694405604       -5.4518901381
 C        -3.6997884210       -0.1484930309       -4.8319253906
 C         2.0744710863       -2.7190652606       -6.5130582835
 C         0.7119627252       -4.4328017420       -7.8779974338
 C         4.3153407763       -6.9283582764       -2.4841633346
 C         6.3561283985       -5.3480104540       -2.8236533895
 C         8.5731583611      -12.5660203133       -1.9398230507
 C         9.2301091829      -10.9277726290        0.0466715568
 C        14.2323272034       -7.0768680854       -3.0141692038
 C        12.1266760845       -5.3892949919       -3.2286134292
 C        12.0681146101      -10.6025020247       -8.4939840748
 C        10.9787760648       -8.7506296208       -9.8007682346
 H         8.0804844872      -11.0288838124       -9.6583370089
 H         9.3080642650      -12.2139253426       -9.2904095188
 H         9.7165981334      -10.9217961583      -10.3658223697
 H        10.8679215999       -6.8072222366       -7.9972761408
 H        12.5624476255       -6.8788912781       -8.0330643220
 H        10.7657221598       -7.0262663982       -5.5786318942
 H        11.4923364681       -5.4267733324       -6.0888889236
 H        13.2827907428       -9.2438724228       -2.5783468921
 H        12.0894419948       -9.9975638294       -3.6124151447
 H        11.0163995366       -9.4664113395       -0.7740832572
 H        11.7838062167      -10.9185373056       -1.2511020732
 H         6.5871672796      -11.4597333522       -3.0592709400
 H         7.7780566040      -10.4309156173       -3.9054386688
 H         5.1253178888       -9.2902276502       -2.8878759154
 H         5.4801656215       -9.6722523819       -4.5700121726
 H         3.2643361498       -7.3202158462       -4.9926147889
 H         3.7755353674       -7.0125580171       -6.5107607901
 H         3.6479464398       -4.5066308637       -6.1831575256
 H         3.3232197069       -4.7772038107       -4.3529533768
 H        -1.8451302471       -4.9185135626       -6.0141854273
 H        -1.8198068655       -3.7583351885       -7.3469987476
 H        -2.3751383418       -2.5174344983       -4.6271874621
 H        -3.5997397029       -3.6742257103       -5.2776870889
 H        -5.9415807255       -1.5571021180       -8.3277160491
 H        -4.6172451355       -0.7642587788       -9.1260071917
 H        -6.3035594033        0.1563320501      -10.3200451544
 H        -5.9624461230        1.4161556663       -9.3697971809
 H        -7.5494206154        4.5120759888       -9.5777321847
 H        -9.1154231576        4.3127696580      -10.4246613857
 H        -6.5950953502        3.8899652117      -12.1526856811
 H        -6.8287570036        5.4338702862      -11.4925971112
 H        -7.7362920879        2.8277313635      -14.8139094596
 H        -7.2625596540        3.3583250397      -16.3646284979
 H        -8.4335733892        1.4471941417      -16.7020497846
 H        -9.8179732054        2.7087388702      -17.0103872782
 H       -12.2657615924        0.9465180608      -12.8092244511
 H       -13.7941784080        1.0346630181      -13.3794469698
 H       -12.4704686766        3.4881555433      -12.2351836408
 H       -13.5122753145        2.4893530038      -11.5240443398
 H       -13.7180995890        7.8646443490      -13.4654023557
 H       -15.3793122372        7.7560365748      -12.8350046217
 H       -15.7964191117        7.5484457521      -15.0137326505
 H       -15.7378890435        5.8859547479      -14.7634016386
 H       -15.5755547472        6.2021360140      -19.7595375133
 H       -17.1192916572        6.6120046743      -19.4683768979
 H       -17.9027495066        4.2019232157      -19.6291880747
 H       -16.7023912843        3.8564836385      -18.5041528336
 H       -16.3418716048        0.0198489708      -22.1525329430
 H       -15.0252815717        0.9863597244      -21.4138351269
 H       -15.1958195196        1.0704322896      -23.1832420265
 H       -17.1759388510        5.5826950861      -22.3807496299
 H       -18.2814418240        4.4869194043      -21.7700920409
 H       -17.7655406766        4.3730939551      -23.4251788322
 H       -15.3987519987        4.2153332411      -23.8974792084
 H       -14.3111662730        3.1725365003      -22.9604312873
 H       -14.5571432813        4.9080487077      -22.3051776192
 H       -15.3743447837        8.5706853303      -16.5144577804
 H       -15.5959390118        8.4952239239      -18.2850514968
 H       -14.0399628041        8.9444955287      -17.7641076247
 H       -12.5228022407        6.6928511137      -18.2525428552
 H       -13.8209367326        6.7714894971      -19.4441288997
 H       -13.4958239381        5.2552183494      -18.3932457644
 H       -17.0057883542        4.2409126195      -11.6955653315
 H       -16.6436927485        5.1241254650      -13.2285444982
 H       -16.7519699958        6.0445550257      -11.6908491626
 H       -14.9886375801        5.4494564120      -10.0725460253
 H       -13.4575241730        4.6078630302      -10.3863728447
 H       -15.0157994065        3.7971516753      -10.1157229122
 H       -12.5308185640        0.6760604541      -17.4974774722
 H       -10.9222937610        1.0225098488      -17.6951500780
 H       -12.2624008759        2.4734258703      -17.2128370825
 H       -11.3501623631       -1.0295140818      -16.1131230982
 H       -12.9910680550       -0.5847355916      -15.6895387436
 H       -11.8347659789       -0.7498852462      -14.4306655657
 H        -8.5293653626        7.1840187746      -13.1384819609
 H        -9.7005097842        6.8917215963      -14.4166486465
 H        -8.0220980216        7.4989685228      -14.7405201317
 H        -5.8962096573        5.5605686531      -13.5195287164
 H        -6.1191412570        6.2467477180      -15.1523898880
 H        -6.0546782587        4.4882924622      -14.7913640147
 H       -10.5865193163        2.8391492766       -8.6731668026
 H       -10.3699401205        1.2475330927       -7.5962522090
 H       -10.6195126262        1.1835048977       -9.2823998705
 H        -8.4605957305        3.8267776497       -7.6963432085
 H        -6.9707950101        3.1773390725       -8.1546093165
 H        -7.8269971173        2.3911264900       -6.7655327516
 H        -5.9714929767       -2.4024979110       -6.0482703710
 H        -6.6632584073       -0.9391341159       -5.4285977057
 H        -5.6270836601       -1.8338322932       -4.4170290981
 H        -4.2997102080        0.7984528270       -4.5000157092
 H        -2.7234983107        0.2236663738       -5.2379737279
 H        -3.5652201825       -0.7403729922       -3.9357971568
 H         1.4369546963       -1.9879772583       -7.0042220291
 H         3.0272827310       -2.8838541628       -7.1420796611
 H         2.4226872147       -2.4071125909       -5.5184201580
 H         1.6084356121       -4.5168721042       -8.3987854935
 H         0.1368808152       -3.6774313244       -8.3516863282
 H         0.2384117403       -5.3926804400       -7.9074796072
 H         4.7245517289       -7.4270515762       -1.5918441514
 H         3.7088849511       -7.7464185994       -2.9014693166
 H         3.7468110287       -6.1097256850       -2.2035195313
 H         7.2864178224       -5.4850777274       -3.3650422889
 H         6.5182995394       -5.4857224319       -1.6802429049
 H         5.8808291335       -4.3594833026       -2.9827885371
 H         9.2532524824      -13.2777390865       -1.3792593575
 H         8.7348316853      -12.6807919208       -3.0200404256
 H         7.5333916913      -12.7301841332       -1.6934551875
 H         9.6600015227       -9.9494769159        0.2977257410
 H        10.0819148811      -11.5822215505        0.3248268386
 H         8.3218806640      -11.1569657853        0.6479514928
 H        14.8969240007       -6.2467384587       -2.9869217957
 H        14.6934546736       -7.8487836070       -3.5079857653
 H        14.1905401584       -7.4006040984       -1.9406666148
 H        12.0680094249       -5.3988107487       -2.1497713406
 H        11.1135509818       -5.4011096117       -3.7094787572
 H        12.5439060236       -4.4802154877       -3.5820183300
 H        12.0302662618      -11.1010882753       -7.5663767798
 H        13.1187478877      -10.3885784392       -8.6344754841
 H        11.7053779819      -11.2545870950       -9.2421230797
 H        11.2167128177       -7.7124730705       -9.8346628187
 H         9.9642972739       -8.9122304367      -10.1621382770
 H        11.5305038062       -9.3458171665      -10.5572663075
 Na        9.2415608758       -9.0365432201       -4.7458429137
 Na      -11.5482207197        5.1950134373      -14.1588593037
