232

 C         9.3564051220      -11.0480145229       -9.4347572969
 C         9.7747641476      -10.2054477855       -8.2215320000
 O         9.0712309988      -10.2804899187       -7.1754755499
 C        11.1019925781       -9.5961702170       -8.5092211420
 C        11.2455353961       -8.5883871096       -7.2579191251
 O        11.2392371383       -9.0777423078       -6.1410798005
 C        11.4610091584       -7.0858961408       -7.3884405045
 C        11.6690091766       -6.3293882122       -6.0379447901
 C        12.8183946602       -6.9721976843       -5.2129784554
 O        13.5815422845       -7.7187978824       -5.7725103252
 C        12.7045542402       -6.8160114180       -3.6761487169
 C        11.7424561343       -7.9121533482       -3.1147767355
 O        10.5381703837       -7.7671181004       -2.9666598903
 C        12.4154002507       -9.2976505141       -2.7981895229
 C        11.4543764152      -10.0671596953       -1.7890163275
 C        10.1034971455      -10.6842498368       -2.3916821045
 O        10.0927322074      -10.8200404313       -3.6078873544
 C         8.8694479805      -11.0898183875       -1.5511274425
 C         7.7614259638      -10.0681891209       -1.9580347073
 O         7.4086672818       -9.1764009635       -1.1822284324
 C         7.0820351020      -10.4344011676       -3.3645507987
 C         5.9845097909       -9.4035567885       -3.5950141094
 C         6.5308367782       -7.9137480585       -3.6479941707
 O         7.6031090408       -7.7041622253       -4.2443514072
 C         5.5692468008       -6.7329510657       -3.3987506925
 C         5.1883126476       -6.3265766970       -4.9422293552
 O         5.9470213360       -5.6876103734       -5.6104900840
 C         3.7641875194       -6.4784839960       -5.5130359406
 C         3.1770777356       -5.1040547737       -5.3126267752
 C         1.6691957662       -5.0463801933       -5.6501156150
 O         0.9124087974       -5.9475639930       -5.2585097804
 C         1.1158194691       -3.8085432405       -6.4484810193
 C        -0.1858069240       -3.3097139683       -5.7198371363
 O         0.0076288529       -2.4194083795       -4.9142263062
 C        -1.5356812651       -3.8755697345       -6.0754025427
 C        -2.7180273144       -2.9941756676       -5.5465544112
 C        -3.3544637061       -2.0380089309       -6.5431962124
 O        -2.9917143087       -2.0457586841       -7.7039452996
 C        -4.4293451340       -0.9642137158       -6.0784373614
 C        -4.7949589835       -0.0167891391       -7.1896864433
 O        -4.6617073416        1.1799227294       -7.0594365478
 C        -5.5056445874       -0.6365437640       -8.4725519001
 C        -6.4490760573        0.4043350167       -9.0677256815
 C        -7.8203684495        0.5676305064       -8.5566221398
 O        -8.3058908476       -0.2506125270       -7.7703073479
 C        -8.4956712247        1.9103345538       -8.8596072822
 C        -8.1208413860        2.4930729422      -10.2527353515
 O        -7.6515321434        1.7852391190      -11.1090642202
 C        -8.2214251553        4.0565230458      -10.4073310832
 C        -7.5552547280        4.2888464126      -11.7319067877
 C        -8.5120481344        4.7497547445      -12.8991237980
 O        -9.7065742817        4.5827197459      -12.6936813835
 C        -8.0209462083        5.4682095929      -14.1545619499
 C        -8.7472170052        4.5101969825      -15.2766749767
 O        -9.8380687080        4.8111772551      -15.6503530815
 C        -8.1186557642        3.1675124839      -15.7625286585
 C        -9.1217692173        2.1445472825      -16.2978660985
 C       -10.1899758298        1.5580495661      -15.1752721816
 O        -9.8221166687        1.4876270464      -14.0127135522
 C       -11.6356442414        1.0814990077      -15.6088140361
 C       -12.4650065962        2.0780175551      -14.7269509910
 O       -12.4746191486        3.2581602658      -15.0477996533
 C       -12.9467026109        1.6450086868      -13.3923048413
 C       -13.3815688557        2.8025224251      -12.5016675539
 C       -14.5919483248        3.5651416082      -12.9837122047
 O       -15.2126564275        3.3222585166      -13.9840305578
 C       -14.9713563698        4.8155326001      -12.0488607355
 C       -13.9922192751        5.9353093697      -12.5945076624
 O       -12.8369492922        5.8342493446      -12.2318595012
 C       -14.4982142139        7.2164014314      -13.4808930423
 C       -15.0115401419        6.8148855537      -14.7949646688
 C       -13.9650526542        6.6459256473      -15.9481914224
 O       -12.8896430712        6.1025273647      -15.7926542184
 C       -14.5135493026        6.8922865244      -17.3969910097
 C       -15.7930457306        6.0212154195      -17.6458751719
 O       -16.3549904900        5.5712759403      -16.6480730034
 C       -16.4423718609        5.8420803571      -18.9913106913
 C       -16.8438071794        4.4253713769      -19.3886038947
 C       -15.8466353167        3.6564845798      -20.3661040968
 O       -14.8142984337        3.1491468245      -19.9971774527
 C       -16.2433860774        3.6464244095      -21.9392932889
 C       -16.7439771659        2.1055343114      -22.2921490524
 O       -17.8658106150        1.9258851277      -22.4553185072
 C       -15.7361990885        0.9990333341      -22.1733399060
 C       -17.3600436863        4.5722329773      -22.2829914662
 C       -14.9650005034        3.7901138355      -22.9030971748
 C       -14.9633797370        8.4083666979      -17.6253365017
 C       -13.4402551390        6.4777542106      -18.4749427678
 C       -16.4893818345        5.0011556346      -12.2123401581
 C       -14.5190208898        4.6425084682      -10.4726965873
 C       -12.1354675543        1.4361611821      -17.0580805039
 C       -11.8251185173       -0.4156728812      -15.2851133366
 C        -8.6359964953        6.9065755151      -14.2414988914
 C        -6.4515765646        5.4212491063      -14.4178181126
 C       -10.0252556021        1.7656641887       -8.6144653735
 C        -7.9403751892        2.8561502995       -7.6866409613
 C        -5.7443618759       -1.4971323310       -5.5854098494
 C        -3.7437521970       -0.1121240328       -4.9892970839
 C         2.0985190737       -2.6270828089       -6.5822509374
 C         0.8183012436       -4.3566738017       -7.9045167625
 C         4.3859243652       -6.9180551709       -2.4647802319
 C         6.3235845379       -5.5391285091       -2.8292492872
 C         8.5702420910      -12.5698548710       -1.8572518889
 C         9.0086025442      -10.7856374662        0.0627512559
 C        14.1143902155       -7.0797034329       -3.2339468306
 C        12.2029369429       -5.4484601184       -3.2141949084
 C        12.1650021539      -10.7741678125       -8.5721295122
 C        11.1255888454       -8.6217743234       -9.8269499115
 H         8.4695497508      -10.6930753190       -9.8824678613
 H         9.1324002104      -12.0365160678       -9.0961429478
 H        10.1980715624      -11.1240445537      -10.1116156751
 H        10.7309746596       -6.4785898618       -8.0181625141
 H        12.3671486089       -7.1609063634       -7.9482537991
 H        10.7422368146       -6.4184862608       -5.3942913520
 H        11.9174806049       -5.3126211748       -6.4260820620
 H        13.3982939311       -9.0621163434       -2.4733591645
 H        12.5160887021       -9.8358347343       -3.7208779985
 H        11.1960488213       -9.2889187426       -0.9664267726
 H        11.9501923434      -10.9016096591       -1.1940408318
 H         6.6762968913      -11.4368396632       -3.1738975244
 H         7.7205651067      -10.3943888943       -4.2814499411
 H         5.1805564955       -9.5291010831       -2.8691702668
 H         5.5433820885       -9.6184561498       -4.5677071786
 H         3.1041544102       -7.3360344113       -5.2309044840
 H         3.8056106458       -6.6853796804       -6.5706883191
 H         3.7649412152       -4.4028455422       -5.9095016620
 H         3.1964023524       -4.8662826092       -4.2133684097
 H        -1.6397097887       -4.9092414989       -5.9418164291
 H        -1.5939597137       -3.8131764389       -7.1930927464
 H        -2.3966769751       -2.3705942767       -4.6834092452
 H        -3.5572791998       -3.6994269567       -5.2539802092
 H        -6.0160725529       -1.4556158126       -8.2726279995
 H        -4.7538656465       -0.9077138291       -9.2180335619
 H        -6.4461378459        0.2242726761      -10.1881632503
 H        -6.0345775620        1.4253407041       -9.1661574926
 H        -7.7582901574        4.6478933119       -9.6028587284
 H        -9.2185227966        4.2626820072      -10.5691375757
 H        -6.9409748634        3.4041232534      -12.1002216126
 H        -6.7141637021        5.0659539548      -11.7667333006
 H        -7.4106114998        2.7323425199      -15.0088409354
 H        -7.5521529302        3.4926807480      -16.6183396965
 H        -8.4788058996        1.2684735636      -16.5985109562
 H        -9.7256734729        2.6038842776      -17.1429659551
 H       -12.0664001268        1.0716652328      -13.0471215461
 H       -13.6704053934        0.9182036636      -13.3880774061
 H       -12.5517302921        3.5191007088      -12.4967904205
 H       -13.3828129461        2.4824247551      -11.5190533684
 H       -13.6924477579        7.9262835779      -13.5527665981
 H       -15.2906399470        7.7882388792      -12.9923062679
 H       -15.8538417565        7.4684684542      -15.0496408285
 H       -15.5392803491        5.8553381288      -14.8029343126
 H       -15.9205261786        6.4065169058      -19.7783002189
 H       -17.3537606787        6.4857761101      -19.0497829973
 H       -17.8208038021        4.5267555774      -19.9007153227
 H       -17.1738245758        3.8029815587      -18.5006559708
 H       -16.3019001175        0.1488859988      -22.0871947104
 H       -15.2304865298        1.2566353891      -21.2401418680
 H       -15.0129529657        1.0278666495      -23.0237970520
 H       -17.1067295059        5.6588398794      -22.1683434515
 H       -18.3358480612        4.4857777963      -21.8020939589
 H       -17.6359635044        4.4684390927      -23.3189409527
 H       -15.2936688967        3.9973148279      -23.9175681177
 H       -14.4469681268        2.7796712056      -22.9333568347
 H       -14.2892694499        4.6087151070      -22.4310946180
 H       -15.2877743381        8.6745566485      -16.6866501960
 H       -15.7450221663        8.6331172994      -18.3427658325
 H       -14.1263773782        8.9855119420      -17.9952055377
 H       -12.4468574613        6.5988892552      -18.0501172671
 H       -13.5164417975        7.2318722399      -19.2957858815
 H       -13.4972766580        5.3906850721      -18.8108504689
 H       -16.9038865693        4.3125114478      -11.4850521904
 H       -16.7158608523        4.6891474753      -13.2597301290
 H       -16.7967481968        5.9908930688      -12.0271771731
 H       -15.0662947365        5.2808410632       -9.8601965245
 H       -13.4624523481        4.6392477461      -10.1439214461
 H       -14.9335840943        3.7247813799      -10.1643765876
 H       -13.1884174052        1.1144664628      -17.2711045705
 H       -11.5664480227        0.8324113767      -17.8286542686
 H       -12.1247104161        2.4625545659      -16.9974308543
 H       -11.4579682115       -1.0253109878      -16.1149848906
 H       -12.8583770879       -0.6790877910      -15.1700016386
 H       -11.3762185218       -0.7728653958      -14.3102486968
 H        -8.9853224280        7.4333888444      -13.3117852770
 H        -9.5009326836        6.8548174341      -14.8950657974
 H        -7.9203511035        7.6357943123      -14.7726845034
 H        -5.8444598940        5.6272096933      -13.5508419493
 H        -6.2156237193        6.1692575007      -15.2051984233
 H        -6.0081129842        4.4345843200      -14.7323487076
 H       -10.6412848129        2.6405018342       -8.8038812200
 H       -10.1716258430        1.2641706413       -7.6441158737
 H       -10.5213551421        1.0556623346       -9.3033585406
 H        -8.2289057019        3.8409892378       -7.7444510740
 H        -6.8631021783        2.8987061847       -7.6258617598
 H        -8.2902450264        2.3598396988       -6.7502819614
 H        -5.9629052730       -2.3668219835       -6.1994743536
 H        -6.4963668666       -0.7873428863       -5.6508995648
 H        -5.6876590579       -1.7323841531       -4.5213596471
 H        -4.4008262704        0.6039539792       -4.4535862221
 H        -2.8918010128        0.4457016654       -5.4709620322
 H        -3.2716240606       -0.7321242275       -4.2836434180
 H         1.5690843211       -1.9050880701       -7.3134918172
 H         2.9960356767       -3.0214042763       -7.1011039463
 H         2.4748340864       -2.1972683594       -5.6752248892
 H         1.7333817173       -4.5610800829       -8.3682163554
 H         0.2997072448       -3.5577019795       -8.4738069980
 H         0.3611074246       -5.2986885818       -7.9286109054
 H         4.7335940579       -7.4516227856       -1.5167092164
 H         3.7011561055       -7.5783728721       -2.8975204035
 H         3.8778308851       -5.9886102661       -2.1719045126
 H         7.1694477902       -5.3269956796       -3.4403772284
 H         6.6510806214       -5.8367499677       -1.8210506515
 H         5.6259680120       -4.7131824445       -2.6882435033
 H         9.2119643097      -13.1462758494       -1.1727303842
 H         8.8015475603      -12.8171935324       -2.9129876572
 H         7.5387053226      -12.7520779750       -1.7641804314
 H         9.2100116144       -9.7493185270        0.2611131243
 H         9.9265535700      -11.2296251511        0.4397325983
 H         8.1464097727      -11.1536033509        0.5735620393
 H        14.7826205224       -6.2328342344       -3.4029589984
 H        14.4928188848       -7.9294306176       -3.7491895252
 H        14.2252143582       -7.3147315316       -2.2132831919
 H        12.5816404044       -5.2983807531       -2.1817859510
 H        11.1210221663       -5.3544018281       -3.3035771264
 H        12.5930947588       -4.6425031982       -3.8511570197
 H        12.1525519778      -11.5074765355       -7.7726622417
 H        13.1334254181      -10.2646888246       -8.3881816217
 H        12.1584163409      -11.2117832092       -9.5445551975
 H        11.4391381924       -7.6506905772       -9.5970082589
 H        10.1706127882       -8.5919478661      -10.2696330634
 H        11.7524722888       -9.0064823329      -10.6318151271
 Na        9.3428754568       -9.1466387269       -4.7037658321
 Na      -11.6023733759        5.1781340662      -14.1601358312
