232

 C         9.2231952019      -11.0654794416       -9.3740648200
 C         9.7804626524      -10.2060988562       -8.3538307994
 O         9.1473226872      -10.0680290103       -7.3316096527
 C        11.2064825151       -9.5084402040       -8.5424271778
 C        11.2296776584       -8.5879489686       -7.2836760510
 O        11.4079170839       -9.0306726978       -6.1595052571
 C        11.2029917659       -7.0872716538       -7.3148030504
 C        11.5164664162       -6.2187148476       -6.0288639372
 C        12.6797856105       -6.9289938332       -5.2837549867
 O        13.3798829458       -7.7478931243       -5.8388677666
 C        12.7659965423       -6.8028408772       -3.6740331796
 C        11.8573036951       -8.0036396322       -2.9971338898
 O        10.6521575244       -7.8589243937       -2.9875592733
 C        12.4350375725       -9.4648684036       -2.6342735175
 C        11.5283768317      -10.2972058801       -1.6405287521
 C        10.2413703295      -10.7475664323       -2.3098270154
 O        10.2218064630      -10.9056819818       -3.5269859069
 C         8.8513845954      -10.9234516112       -1.4738630659
 C         7.6508331227      -10.0739883771       -2.1193695065
 O         7.1752048074       -9.2427800891       -1.4209628542
 C         6.9725852442      -10.5450555538       -3.4567147359
 C         5.9309195075       -9.4593651456       -3.7530051476
 C         6.5715181573       -8.0615766014       -3.8390778993
 O         7.6433321058       -7.8406153205       -4.3252130083
 C         5.6092375637       -6.6885519066       -3.5069990847
 C         5.1726875672       -6.1549544582       -4.8861410143
 O         5.9694470024       -5.5971467782       -5.6257653015
 C         3.6748329478       -6.2402441292       -5.2314961932
 C         3.0049452074       -4.8470496268       -5.0243312168
 C         1.5576554698       -4.8572437983       -5.6401500195
 O         0.7930750070       -5.7687368932       -5.5068594578
 C         1.1276604322       -3.6450875599       -6.5047731216
 C        -0.1209440161       -3.2213661615       -5.7033857787
 O         0.0214253921       -2.3807791730       -4.8629989443
 C        -1.5188084049       -3.8731950828       -5.9993116152
 C        -2.6612150498       -3.0570089801       -5.4720276905
 C        -3.2154377678       -2.0773772573       -6.5751657325
 O        -3.0211061793       -2.3604203058       -7.7094872231
 C        -4.3165194725       -0.9628892776       -6.0143160086
 C        -4.8376016135       -0.0413800015       -7.1953461067
 O        -4.5685561937        1.1596571239       -7.2402309606
 C        -5.6075464880       -0.7234549184       -8.3565365410
 C        -6.4400093256        0.2663678376       -9.1158470976
 C        -7.7846176863        0.5648735297       -8.5132449909
 O        -8.3657616301       -0.3025854797       -7.9374251282
 C        -8.4750003892        2.0400776411       -8.7835665270
 C        -8.0285998382        2.4944528170      -10.1853795839
 O        -7.9299071705        1.6365657682      -11.0385977733
 C        -8.3442378679        4.0198591281      -10.6437486568
 C        -7.7102810742        4.3001721523      -11.9687613576
 C        -8.7816644627        4.5935849930      -13.0626105662
 O        -9.9698499489        4.6235923283      -12.8587399844
 C        -8.1126100669        5.3763220597      -14.4393673854
 C        -8.7950561269        4.5092330094      -15.5846502822
 O        -9.8895292447        4.7949774331      -16.0551159812
 C        -8.2255187832        3.0664673456      -15.7694785656
 C        -9.2870910400        2.1385529177      -16.3500276259
 C       -10.2133361656        1.6982282549      -15.2685453964
 O        -9.9435387675        1.6009574767      -14.0951343968
 C       -11.6558495654        1.1915646927      -15.5730604346
 C       -12.4496819796        2.1342116436      -14.5914804800
 O       -12.4780453936        3.3092729867      -14.8992609406
 C       -13.0941047052        1.5921642845      -13.3148454413
 C       -13.4983242089        2.6342770293      -12.2637910974
 C       -14.6762547474        3.4663809456      -12.7957417161
 O       -15.1949108245        3.1483408528      -13.8598070240
 C       -15.0016453966        4.8080829309      -11.9151187932
 C       -13.9371398478        5.8931684583      -12.4405791094
 O       -12.7892436324        5.7929671776      -12.0031902086
 C       -14.2193827174        7.1009920665      -13.3194163653
 C       -14.9256846092        6.8691192540      -14.7447991410
 C       -13.9520382001        6.6074868168      -15.9914872380
 O       -12.7723160297        6.2335349563      -15.8693115800
 C       -14.4650716700        6.9504864064      -17.4562240265
 C       -15.7968242120        6.0697715580      -17.7030499100
 O       -16.2891243544        5.5122138384      -16.7349750495
 C       -16.3424697499        5.9084317297      -19.0960138254
 C       -16.7231759520        4.4232767058      -19.2739648195
 C       -15.8085930760        3.7099125667      -20.2868229446
 O       -14.6893815035        3.3118554164      -19.9837324101
 C       -16.2021754978        3.6370142255      -21.8116730944
 C       -16.7607889924        2.1581785213      -22.0657987931
 O       -17.9767776685        1.9296888110      -22.2483899225
 C       -15.8191947933        0.9144493316      -21.9088873309
 C       -17.2300916070        4.6808941999      -22.2952408400
 C       -14.8829910227        3.8132583791      -22.6370588928
 C       -14.8929241065        8.4261990789      -17.6313316646
 C       -13.2815674641        6.7374493048      -18.4772593187
 C       -16.5077251382        5.2637761676      -12.2758682610
 C       -14.8682311508        4.4311031887      -10.4283031473
 C       -12.1138958911        1.2557021583      -17.0061320239
 C       -11.7956521437       -0.3749510816      -15.1342289005
 C        -8.6361529619        6.8421017693      -14.5809533716
 C        -6.5468294634        5.2977566316      -14.4051904195
 C       -10.0058137200        1.8889701705       -8.8925175540
 C        -8.1067497839        2.9458933404       -7.5742894329
 C        -5.4772273507       -1.8383090723       -5.4466366793
 C        -3.6715191797       -0.1380414546       -4.8697449448
 C         2.1924379789       -2.4828339746       -6.6808294872
 C         0.8058948545       -4.2327004180       -7.9007923847
 C         4.4798823244       -7.2639965006       -2.6570591135
 C         6.6095979959       -5.7401608653       -2.8553945154
 C         8.6429364697      -12.5154645806       -1.6864533013
 C         9.1477054123      -10.6450377737        0.0299221588
 C        14.2095621977       -6.9815656746       -3.3464976479
 C        12.1416101810       -5.4233757011       -3.2221679044
 C        12.4701167299      -10.5014587941       -8.2958609701
 C        11.2357742933       -8.7299022550       -9.8675029799
 H         8.7891015555      -10.4083534539      -10.1755313729
 H         8.3310339536      -11.6553910489       -9.0203320169
 H        10.0253616137      -11.7157204279       -9.6924449042
 H        10.1937608093       -6.7752833210       -7.5904294812
 H        11.7987289200       -6.7727058237       -8.2535312384
 H        10.6456383727       -6.0867929462       -5.3819535835
 H        11.8742218814       -5.2789431681       -6.4652710192
 H        13.5233777425       -9.3745033427       -2.3403943135
 H        12.3373572848      -10.0196094582       -3.5952199174
 H        11.4322299907       -9.6353929027       -0.8006509212
 H        12.1352119248      -11.1355797280       -1.2639714906
 H         6.4410551347      -11.4595979642       -3.1455360024
 H         7.8005427822      -10.6752342864       -4.0860794046
 H         5.3337895218       -9.4655177586       -2.8142147594
 H         5.1871691950       -9.6161670485       -4.5644549544
 H         3.1545025452       -6.9644842586       -4.6410159607
 H         3.5080325503       -6.6554896010       -6.2436822889
 H         3.5847533655       -4.0815494467       -5.5063712538
 H         2.9550655225       -4.6790098507       -3.9743448025
 H        -1.5229831100       -4.9015313829       -5.5196779779
 H        -1.7709955208       -4.2726607246       -6.9557647564
 H        -2.4535866697       -2.5442803934       -4.5415107212
 H        -3.4321953685       -3.7916059951       -5.3349452032
 H        -6.1742198310       -1.7410120461       -8.0810729550
 H        -4.6881757970       -0.9391070288       -8.9469998485
 H        -6.5744569086        0.0561325107      -10.1593265641
 H        -5.8366143494        1.1997892702       -9.1482935142
 H        -8.0319183818        4.6376273616       -9.7985388322
 H        -9.5197040583        4.0241464400      -10.7928133396
 H        -7.1625679491        3.4474497813      -12.2204947393
 H        -7.0323099271        5.0509716672      -12.1272794469
 H        -8.0329378604        2.8708639176      -14.7148913549
 H        -7.2385479114        3.0647212370      -16.3619179231
 H        -8.9034365701        1.1951901955      -16.6308594122
 H        -9.8519515353        2.6377016709      -17.1035637125
 H       -12.5787571258        0.6955299294      -12.9627855847
 H       -14.1491753163        1.1502422540      -13.6390770219
 H       -12.5992804200        3.1952090048      -11.8801574412
 H       -13.8271105005        2.0311637864      -11.3323093799
 H       -13.3089757637        7.7140041963      -13.3528999904
 H       -14.7955610093        7.7790947943      -12.6857548069
 H       -15.5655285595        7.7193271808      -15.0337878873
 H       -15.6927984639        6.0805716959      -14.7581698413
 H       -15.6899501336        6.3417088831      -19.8265798639
 H       -17.1788880234        6.5107604056      -19.3352688635
 H       -17.7934958368        4.4122253295      -19.4810441673
 H       -16.5996360538        3.8580287733      -18.3837594217
 H       -16.4821013223        0.0060460305      -21.6507838817
 H       -15.0549796796        1.1540406830      -21.1207049130
 H       -15.4249695742        0.6955850238      -22.9213066975
 H       -17.2741151388        5.5984996010      -21.7659031666
 H       -18.2503654598        4.2551936942      -22.2034871542
 H       -17.2599523588        4.9699116513      -23.3643182295
 H       -15.1045870409        3.2460275456      -23.5472315923
 H       -14.1038428677        3.4074612807      -22.1376670201
 H       -14.7722714447        4.8309311608      -22.8659428631
 H       -15.7778719636        8.6158852408      -16.9674824959
 H       -15.2195931582        8.6203967069      -18.6270639420
 H       -14.0115432966        9.0441436874      -17.5764859358
 H       -12.4090152192        6.6341612282      -17.8093603916
 H       -13.1060218350        7.4602398531      -19.2706192578
 H       -13.3924972198        5.7855220423      -18.9306496145
 H       -17.0492757297        4.7092776001      -11.5193669948
 H       -16.7228211424        4.9032083197      -13.2598515460
 H       -16.6673744126        6.3779253974      -12.1569191625
 H       -15.1990720207        5.2056730547       -9.7108784560
 H       -13.8674608209        4.2405193275      -10.1530400900
 H       -15.4855038173        3.5010948831      -10.2195617351
 H       -13.1324093864        1.4569497244      -17.1202359871
 H       -11.9852845776        0.2566751885      -17.4247641480
 H       -11.7241886314        2.1917126467      -17.4867099122
 H       -11.3604321001       -1.0439197321      -15.8711560509
 H       -12.8244116673       -0.7390213492      -14.9402403553
 H       -11.3256064618       -0.5544810564      -14.2144246835
 H        -8.9577459779        7.1853439711      -13.6537979272
 H        -9.4899992303        6.9916821808      -15.2833546540
 H        -7.9148910638        7.5403786819      -14.8739294038
 H        -6.0568809060        6.0989395442      -13.8535320412
 H        -6.0920500040        5.2636215964      -15.3820533410
 H        -6.2214197281        4.4342452126      -13.8807186425
 H       -10.5994052570        2.7990546211       -9.2081619060
 H       -10.4374743066        1.4015594179       -8.1102331888
 H       -10.2558318395        1.3500011633       -9.7363065802
 H        -8.3124829919        4.0100867937       -7.8039117241
 H        -7.0299721031        2.8482319749       -7.3744568215
 H        -8.5258513018        2.5740888254       -6.6404767258
 H        -5.7499406765       -2.5967643065       -6.1894292897
 H        -6.3687555437       -1.2077747716       -5.0983858536
 H        -5.1174676343       -2.3604512110       -4.5437591153
 H        -4.3888255595        0.6211105055       -4.5103345850
 H        -2.7545227382        0.3380217139       -5.1176001715
 H        -3.3119602143       -0.8151765492       -4.0826385170
 H         1.9093299051       -1.7129319176       -7.2816241701
 H         3.1009574852       -2.9121700555       -7.0695891730
 H         2.4537800991       -2.2035767952       -5.6729689966
 H         1.7116914519       -4.8330021933       -8.2341633286
 H         0.5494460295       -3.4617177943       -8.6239685619
 H         0.1270252065       -5.1313611200       -7.7984304228
 H         4.8649966115       -7.4796504085       -1.6881869812
 H         3.8466088201       -8.1169357741       -3.0938013937
 H         3.7669079834       -6.4643597567       -2.4849691753
 H         7.3220175508       -5.3922196322       -3.6259192092
 H         7.2961603519       -6.2611855634       -2.1580818783
 H         6.0493180541       -4.9436932374       -2.4032049039
 H         9.5921990165      -12.9316682595       -1.3873521742
 H         8.4732435570      -12.7152961989       -2.7255967159
 H         7.7286736963      -12.9402893095       -1.2449140589
 H         9.2637210832       -9.5928172967        0.2286973292
 H        10.0413089415      -11.1156337411        0.3734258500
 H         8.3153366238      -11.0027907803        0.6427557608
 H        14.7783287409       -6.3203197757       -3.9925754568
 H        14.5724658594       -7.9973606025       -3.5302811350
 H        14.5388255083       -6.7792697224       -2.2683953693
 H        12.5206360269       -5.1057003938       -2.2653399793
 H        11.0284300952       -5.4454870771       -3.2128991560
 H        12.4357769407       -4.6541524623       -3.9366372420
 H        12.2588702649      -11.1011157823       -7.3940872394
 H        13.4183121205      -10.0251577812       -8.0116030642
 H        12.6320786289      -11.1481182938       -9.2076207702
 H        12.2829124979       -8.2965402312       -9.9493547922
 H        10.4652416838       -7.9227208932      -10.0130512238
 H        11.1486655058       -9.3190577916      -10.8066906130
 Na        9.5328362144       -9.1043393986       -4.9653941507
 Na      -11.6325318152        5.2560000765      -14.0764667964
