232

 C         9.3615923964      -11.1527865972       -9.4217648105
 C         9.7566267091      -10.1613397155       -8.3730876651
 O         9.1327898387       -9.9601448180       -7.3592943542
 C        11.1811312293       -9.3615040878       -8.4637417688
 C        11.2979396796       -8.4856357893       -7.2063668676
 O        11.4849756352       -9.1738667591       -6.2193309926
 C        11.2750743554       -6.9039770451       -7.2146306989
 C        11.3377702933       -6.3785449247       -5.8523071676
 C        12.7287032368       -6.8366951146       -5.2446395350
 O        13.6464589813       -7.0732638543       -5.9960790139
 C        12.7790202893       -6.8201979002       -3.6399291275
 C        11.8840167321       -8.1349240695       -3.2490842608
 O        10.6744045768       -8.1301417280       -3.3110646787
 C        12.5021039190       -9.4005614284       -2.5088952640
 C        11.4416312626      -10.1539404009       -1.7200470150
 C        10.2232141556      -10.5763880591       -2.4497689554
 O        10.1250225826      -10.7598247328       -3.6434029525
 C         9.0716911337      -10.9025471808       -1.4828877700
 C         7.7613521487      -10.1280946157       -2.1530521055
 O         7.2379091884       -9.2046594825       -1.6297493598
 C         7.1257204908      -10.6345570701       -3.4005352233
 C         6.0823191339       -9.6891108542       -4.0721438138
 C         6.5438952769       -8.2183427575       -4.1055488149
 O         7.6344621810       -7.9163684760       -4.6504155850
 C         5.8039800033       -7.0658906038       -3.5282559835
 C         5.2336761928       -6.1415108346       -4.7735539962
 O         6.0212961275       -5.6438880636       -5.5050495712
 C         3.7086581378       -6.0342560382       -5.1380119483
 C         2.9255886791       -4.7248781542       -4.7736327320
 C         1.6633468768       -4.7209580666       -5.7238828121
 O         0.9764228392       -5.6813035439       -5.7669240507
 C         1.1953573682       -3.5083743836       -6.5350317594
 C        -0.1334459157       -3.0090004743       -5.7892366682
 O        -0.0615486832       -2.0085055582       -5.1133043711
 C        -1.4395893632       -3.7719431661       -6.0157856808
 C        -2.6706885805       -3.1108549256       -5.3760718922
 C        -3.3636633850       -2.2564290238       -6.4728016170
 O        -3.0620150649       -2.3959016727       -7.6225403502
 C        -4.3608709303       -1.1336105244       -5.8745868326
 C        -4.8901113016       -0.3149574206       -6.9987114344
 O        -4.4233111119        0.7858727582       -7.2099553195
 C        -5.7914966156       -0.8222650767       -8.0746811975
 C        -6.4265540270        0.2571878467       -8.9774664405
 C        -7.8988079807        0.4790453699       -8.6281790801
 O        -8.5178768749       -0.2430272490       -7.9088718000
 C        -8.5983095545        1.8777129700       -8.9460246802
 C        -8.3425505883        2.4050143629      -10.4091855221
 O        -7.7433594036        1.7304853859      -11.2356885009
 C        -8.3972895755        3.9745165169      -10.7935390215
 C        -7.7589725386        4.2981462563      -12.1483514130
 C        -8.8082412415        4.6962137661      -13.2012423235
 O        -9.9121095041        4.9075789907      -12.7308154319
 C        -8.2410524968        5.1629886326      -14.6701961232
 C        -8.9384575718        4.3803852641      -15.7710657756
 O       -10.0861932208        4.6776751579      -16.1460186675
 C        -8.3224122725        2.9994969707      -16.3118828812
 C        -9.4028176577        1.9268832511      -16.4951626993
 C       -10.2015327880        1.5566092175      -15.2333045744
 O        -9.7703847634        1.5957280570      -14.1196066084
 C       -11.7585174375        1.0953140582      -15.3617277182
 C       -12.5612383137        2.0604227292      -14.3928569945
 O       -12.7021180905        3.2415239106      -14.7041140444
 C       -13.2385359171        1.4628141725      -13.1158484814
 C       -13.8464489511        2.6090351898      -12.2318337577
 C       -14.9800859550        3.4337065193      -12.7481647138
 O       -15.6815227734        3.1200592148      -13.7013647474
 C       -15.1197383467        4.8736177359      -11.9934163914
 C       -13.8661088678        5.7157725943      -12.4591929771
 O       -12.7467116573        5.2971683698      -12.1841303607
 C       -14.0335036142        7.0604985550      -13.3187965118
 C       -14.7751332547        6.6546828354      -14.6451854028
 C       -13.8028912495        6.7783646417      -15.9224668181
 O       -12.5435681501        6.8799963716      -15.8235584313
 C       -14.4791015229        6.9757318148      -17.2934003297
 C       -15.6720400020        6.0690876446      -17.5378625451
 O       -16.2745926066        5.4907422382      -16.6709361139
 C       -16.1595023981        6.0016633385      -18.9816332084
 C       -16.7189260237        4.6165151603      -19.3226114278
 C       -15.6766643425        3.8610311205      -20.2506123515
 O       -14.6568266623        3.3549091758      -19.7761201164
 C       -16.0500763909        3.6245997861      -21.8289216121
 C       -16.7341500335        2.2182900355      -21.7965312271
 O       -17.9914612455        2.0910877082      -21.7139730114
 C       -15.8129686559        0.9580272824      -21.6050433768
 C       -17.0089807751        4.7073105980      -22.3949155461
 C       -14.7880564029        3.5446244113      -22.7365283056
 C       -14.9294054647        8.4045103232      -17.2943245827
 C       -13.3042615139        6.8496233580      -18.2079718446
 C       -16.5394632343        5.4050677234      -12.3497229143
 C       -15.0684129212        4.8474262858      -10.3969397879
 C       -12.3215109651        1.4087605090      -16.7755592487
 C       -11.7239750650       -0.4131813863      -15.0526549745
 C        -8.6870958564        6.6725798880      -14.7230048528
 C        -6.7395013410        5.1938387694      -14.7810219151
 C       -10.0837236325        1.5892147253       -8.6708778317
 C        -8.0269690636        2.8619277976       -7.9599671186
 C        -5.6610614826       -1.7755234803       -5.1907981124
 C        -3.5767286780       -0.2148017036       -4.9574345368
 C         2.1842553694       -2.2806341791       -6.7072764486
 C         0.7660311650       -3.8822465196       -7.9374767701
 C         4.6800121707       -7.3951521710       -2.5191070350
 C         6.9049403091       -6.1756294387       -2.9404160098
 C         8.8283796965      -12.4768686661       -1.3739697584
 C         9.0929096591      -10.4831233087        0.0027213963
 C        14.2511178926       -7.0095032497       -3.1770115290
 C        12.1011762842       -5.5118800004       -3.0708997276
 C        12.1890612127      -10.6521638215       -8.3648785818
 C        11.3989315841       -8.6516650062       -9.7941696935
 H         9.6502591991      -10.6883085255      -10.3378144768
 H         8.3216213342      -11.3610573153       -9.4718437820
 H         9.8958878454      -12.0417037432       -9.1717347802
 H        10.3185627006       -6.7633365804       -7.7569063435
 H        12.0822353910       -6.4620285489       -7.8997516087
 H        10.5391764084       -6.8587159701       -5.2177122644
 H        11.1624011353       -5.2628949760       -5.7201268740
 H        13.2428145033       -9.2562694563       -1.8072275315
 H        12.8041135988      -10.1405338097       -3.2598889072
 H        11.3149093556       -9.4003129673       -0.9241915088
 H        12.1534887115      -10.8843153017       -1.2336729812
 H         6.6286644917      -11.4887604028       -3.0228205215
 H         8.0086714656      -10.7784659394       -4.0816186330
 H         5.1037392841       -9.7669033021       -3.5751609770
 H         5.9203554702      -10.1637399239       -5.0337557734
 H         3.1305537763       -6.9189716137       -4.7950495401
 H         3.7828841729       -6.0624760758       -6.2578389218
 H         3.4945545898       -3.7757280271       -5.0564514923
 H         2.6496819717       -4.6521796683       -3.7422553756
 H        -1.2980789791       -4.6977934886       -5.5409779624
 H        -1.4761491229       -4.1988212208       -6.9533787345
 H        -2.2464231468       -2.5704843289       -4.4593140878
 H        -3.4104234083       -3.8672116589       -5.0173313594
 H        -6.5857316745       -1.5340674427       -7.6849687621
 H        -5.1269309134       -1.3244934692       -8.6603607491
 H        -6.2857242008       -0.0106903505      -10.0779832394
 H        -5.8658632653        1.1864914669       -8.7664924150
 H        -7.7031992078        4.3537820611      -10.0776372587
 H        -9.3697988591        4.3476569189      -10.5828262290
 H        -7.0215482424        3.5425091876      -12.6104220616
 H        -7.0080662431        5.1561543808      -12.0155902609
 H        -7.5658604014        2.7293924436      -15.5390219355
 H        -7.7382918099        3.1707608313      -17.2532893849
 H        -8.8330678800        0.9735973201      -16.8126371050
 H       -10.1844792827        2.2562414419      -17.1779447701
 H       -12.5374376295        0.9185624776      -12.5034961632
 H       -13.9799382377        0.7631543846      -13.4693925928
 H       -12.9827963329        3.1778737899      -12.0312059143
 H       -14.1268638501        2.1339331505      -11.2062064003
 H       -13.0864904628        7.5989403010      -13.4123764973
 H       -14.5453583790        7.7714479700      -12.7071337148
 H       -15.6168772967        7.2937225792      -14.9833400923
 H       -15.2943381165        5.7261620296      -14.5704768054
 H       -15.3829533526        6.3002781702      -19.7581619093
 H       -16.8486638512        6.8614043165      -19.0832267919
 H       -17.6238982940        4.6869074855      -19.9496970853
 H       -16.8943317043        4.1445393651      -18.2973806088
 H       -16.4004908911        0.2198915064      -21.0101329643
 H       -15.0275426503        1.2900318077      -20.9829519352
 H       -15.6441691965        0.4034797608      -22.4656661679
 H       -16.5528246305        5.7127638322      -22.3881002065
 H       -17.9538570118        4.8672911074      -21.9124703579
 H       -17.3253538883        4.6149369223      -23.4286509753
 H       -14.8913897497        2.6019297071      -23.4091713724
 H       -13.9309131810        3.6202211917      -22.0463472431
 H       -14.8204007802        4.3923654900      -23.4368112737
 H       -16.0001461057        8.5779537902      -17.1023373170
 H       -14.7832958656        8.6695684900      -18.3330488678
 H       -14.2191364702        8.9974921133      -16.7418218388
 H       -12.6255818359        7.6752904887      -17.9251699043
 H       -13.6534863793        6.8865065548      -19.2112065544
 H       -12.8519625979        5.8514697277      -18.2043177370
 H       -17.2433467306        4.8296647464      -11.7840061198
 H       -16.7086173951        5.3561257980      -13.3894340348
 H       -16.4729076914        6.4404154553      -12.0134538073
 H       -15.0738124520        5.8724849201       -9.9971336324
 H       -14.0997290048        4.5985546475      -10.1124513422
 H       -15.7408722199        4.1828642289       -9.9015800277
 H       -13.0669798035        0.6689566021      -17.0710803984
 H       -11.5549569635        1.2508513566      -17.4838718877
 H       -12.9414546884        2.3675446225      -16.8916045257
 H       -11.1517941515       -1.0017591978      -15.7848193738
 H       -12.7575728961       -0.8362844663      -15.0479795359
 H       -11.2892177400       -0.6684602591      -14.0995921722
 H        -8.0896155369        7.4050906563      -14.1218251704
 H        -9.7653885241        6.7465367457      -14.3560265001
 H        -8.7290921871        7.1116753858      -15.7236309940
 H        -6.2712351397        5.7644014484      -13.8894458820
 H        -6.4293719497        5.7595030456      -15.6601346480
 H        -6.2418331936        4.2373713695      -14.8940840846
 H       -10.6575277936        2.5333539875       -8.6062096810
 H       -10.1712591683        1.1446792899       -7.6766810573
 H       -10.6945767960        1.0348056486       -9.3927635609
 H        -8.7865333185        3.7058152595       -7.9563535647
 H        -7.0974324235        3.1876618769       -8.3408124118
 H        -7.8412362646        2.5564235805       -6.9995509668
 H        -6.0914991131       -2.5767255414       -5.7600766464
 H        -6.3513511847       -0.9278432409       -5.1932941850
 H        -5.5121583007       -2.1430041572       -4.2385789882
 H        -4.1032861433        0.6906456732       -4.8612534822
 H        -2.6332573514        0.0107947776       -5.3180558464
 H        -3.2162533651       -0.7216649984       -3.9985506470
 H         1.7916067855       -1.5596633750       -7.4208317769
 H         3.1864351083       -2.5834175475       -7.0947270603
 H         2.2166742391       -1.7173650552       -5.6836270163
 H         1.4778508018       -3.6763722489       -8.7336571371
 H        -0.0232842554       -3.2709197247       -8.1450497740
 H         0.4386136060       -4.9178339189       -7.9478245060
 H         5.0636646796       -8.0279216109       -1.8022756677
 H         3.8696962009       -7.8975546192       -3.1133981701
 H         4.3051509662       -6.5117514379       -1.9683423965
 H         7.8174108504       -6.1575969660       -3.5934420316
 H         7.3450994741       -6.6457804147       -2.0903757306
 H         6.4670910835       -5.2335522921       -2.7718264255
 H         9.5465463402      -12.9424364039       -0.7373500504
 H         8.7341805709      -12.9563668591       -2.3361491571
 H         7.7671517230      -12.6012825888       -0.9516996854
 H         9.2289598978       -9.4523930063        0.3624038100
 H         9.7847608476      -11.1473639899        0.5022551945
 H         8.1100836693      -10.7951401577        0.4041134988
 H        14.8735451070       -6.1917027952       -3.3236870447
 H        14.7304446068       -7.8704940901       -3.6568132677
 H        14.2704335130       -7.3250941387       -2.1572580298
 H        12.1209445576       -5.4905626280       -1.9871655106
 H        11.0482506276       -5.4577751667       -3.3120514891
 H        12.7173862284       -4.6550529175       -3.3994092300
 H        12.2049720372      -11.0476023036       -7.3583934549
 H        13.1784911549      -10.4365530308       -8.6287883385
 H        11.9231604362      -11.4400640013       -9.0836650005
 H        12.2379627770       -9.0277208628      -10.3562535312
 H        11.4710649503       -7.6215301373       -9.7504902420
 H        10.6580484806       -8.7970632652      -10.4880581046
 Na        9.4922236361       -9.2014055985       -5.0944772443
 Na      -11.6384511636        5.3302199469      -14.3126323127
