232

 C         9.3112330399      -11.0939742339       -9.5506033626
 C         9.7426901751      -10.0524458884       -8.3728824451
 O         8.9489167179       -9.9979077026       -7.4323372646
 C        11.1940369009       -9.5067787183       -8.4691632558
 C        11.4793544678       -8.6405781041       -7.1352627569
 O        11.7503967044       -9.1674902130       -6.0598203742
 C        11.3796182849       -7.0609943896       -7.3033850232
 C        11.4505615978       -6.3670077192       -5.9723748635
 C        12.7135314113       -6.6679544733       -5.1968771865
 O        13.7979879731       -6.4297388164       -5.6596791898
 C        12.7370716451       -6.9116960369       -3.5795521151
 C        11.8204979696       -8.1269748912       -3.2967375829
 O        10.6416331620       -7.9447430268       -3.5875471588
 C        12.4142920611       -9.3774266501       -2.7777131714
 C        11.5210162953      -10.0577054995       -1.6286451101
 C        10.2878814329      -10.5337277499       -2.2519419440
 O        10.2437419060      -10.8819155003       -3.4443563740
 C         9.0183065412      -10.9299856653       -1.4465809747
 C         7.7643684603      -10.1803433244       -2.1424603089
 O         7.3449103110       -9.0767305898       -1.7778155032
 C         7.1038568102      -10.7127054336       -3.4870748811
 C         6.0489211726       -9.7175826850       -4.0102807856
 C         6.6101143060       -8.2727206548       -4.2334228653
 O         7.5076161146       -8.0900814000       -5.0202522276
 C         5.8863354808       -7.1797691049       -3.5926769394
 C         5.3061494729       -6.2109168222       -4.7624384061
 O         6.0679208930       -5.5087904710       -5.3852823453
 C         3.7783925849       -6.2079386448       -5.1082179277
 C         3.2183017705       -4.7905937965       -5.1794842414
 C         1.7876074125       -4.7058110888       -5.8190836395
 O         1.1410113340       -5.7722025838       -5.8924254295
 C         1.2426822617       -3.3883239292       -6.5105941105
 C        -0.1744171824       -2.8207314672       -5.8973929027
 O        -0.2318485655       -1.7559808025       -5.2706839005
 C        -1.3285762431       -3.7842404799       -5.8127049851
 C        -2.6998585240       -3.2548556073       -5.3214068565
 C        -3.4140386890       -2.2713566411       -6.2701443282
 O        -3.2921613435       -2.4241430851       -7.4809728612
 C        -4.3751355911       -1.1573498497       -5.8110828461
 C        -4.8395363766       -0.2972936079       -7.0462297126
 O        -4.3674939546        0.7921782592       -7.2429213893
 C        -5.7768874465       -0.8738225305       -8.0670560190
 C        -6.5020764938        0.2348527021       -8.9748506430
 C        -7.9763689706        0.4567101361       -8.6053866569
 O        -8.6495579432       -0.3330523564       -7.9681515136
 C        -8.5575858629        1.7894901784       -8.9759625182
 C        -8.0933093526        2.2488320438      -10.4718467004
 O        -7.7376622909        1.4531189620      -11.2998323193
 C        -8.3792553497        3.7379746677      -10.8851918951
 C        -7.7268511120        4.1212848120      -12.1929780753
 C        -8.7001130376        4.8409299362      -13.1616683046
 O        -9.8946320093        4.9014701875      -12.9236392361
 C        -8.2804427341        5.2811191522      -14.6745033922
 C        -9.0670305064        4.2506409845      -15.6341543767
 O       -10.2135297487        4.4961703071      -15.9055344896
 C        -8.4649953142        3.0276137061      -16.3015466275
 C        -9.5396327926        1.9200667888      -16.5583616189
 C       -10.3705989327        1.6558690016      -15.2770951837
 O        -9.7303248716        1.6376696997      -14.2168724761
 C       -11.8035099522        1.1872541691      -15.2996011643
 C       -12.5825146975        2.0889567248      -14.2244157053
 O       -12.7184359577        3.2672494661      -14.4743861431
 C       -13.4343117046        1.4121857766      -13.1156201633
 C       -13.9618211654        2.4545997141      -12.0747750948
 C       -15.0542492413        3.4095158229      -12.6056113776
 O       -15.8322165309        3.0721947235      -13.4364677647
 C       -15.2375480057        4.8665941749      -11.9641647485
 C       -13.9675748676        5.6369506537      -12.5779485035
 O       -12.8796781186        5.1180007018      -12.4801088084
 C       -14.2447258288        7.0298497314      -13.3614794260
 C       -14.7529112609        6.6808573701      -14.7089745844
 C       -13.6719479978        6.9418873202      -15.7537496328
 O       -12.4931249158        7.0100322433      -15.5287345824
 C       -14.3244548670        7.1986780301      -17.2934584549
 C       -15.5354421446        6.1710596561      -17.5125980559
 O       -15.9701390966        5.5569480672      -16.5752740439
 C       -16.3310373648        6.1315089344      -18.8328880331
 C       -16.7318980268        4.6766275108      -19.3913294555
 C       -15.6041591152        3.9247203381      -20.2994894192
 O       -14.5824220989        3.4401515625      -19.8572386393
 C       -15.9867087186        3.6129752928      -21.8071307035
 C       -16.8286729469        2.2352187393      -21.6294474638
 O       -17.9820834767        2.2040391684      -21.4119671780
 C       -15.8699329186        0.9948107168      -21.4462171933
 C       -16.8776370007        4.5747865431      -22.5411820256
 C       -14.6471411795        3.3086399787      -22.5718762650
 C       -15.0592949845        8.5867204529      -17.3621453106
 C       -13.2320182232        7.0413017480      -18.3173499583
 C       -16.6222271176        5.5423113620      -12.2968956717
 C       -14.9869882666        4.7714699081      -10.4333914969
 C       -12.5674332812        1.3158707196      -16.6543334569
 C       -11.8275817055       -0.2688547743      -14.9426516761
 C        -8.7266939843        6.7029071629      -14.9921191896
 C        -6.7262106850        5.0159136578      -14.9044486822
 C       -10.0947282932        1.9057923867       -8.9924086537
 C        -7.9646919977        2.8768667234       -7.9725743335
 C        -5.6416605672       -1.7007761898       -5.0741897546
 C        -3.6012546764       -0.2561387567       -4.7716187770
 C         2.2749550342       -2.2611119677       -6.4101162052
 C         1.0012165455       -3.8020051353       -7.9750797984
 C         4.7998106282       -7.5483846184       -2.5647735796
 C         6.7699690782       -6.1337263059       -2.6746069162
 C         8.7181244053      -12.4180987285       -1.5975435214
 C         8.9996940807      -10.2822979047        0.0162469650
 C        14.3020797070       -7.0193027999       -3.1994660605
 C        12.2184980192       -5.6081128009       -2.8011540144
 C        12.2045232960      -10.6492668267       -8.5972251847
 C        11.2811569115       -8.7005563099       -9.8497459730
 H         9.8872989219      -10.9827919510      -10.4731483964
 H         8.2511360665      -10.9475696236       -9.8025254489
 H         9.4157649773      -12.1048732990       -9.0798901811
 H        10.5372506240       -6.7721321334       -7.9843650891
 H        12.2832073122       -6.8077026322       -7.8311997795
 H        10.5524495009       -6.5026489287       -5.3657880551
 H        11.4686381009       -5.2921687936       -6.0677567842
 H        13.4119261908       -9.0428844235       -2.3118117440
 H        12.4821497603      -10.1804071275       -3.5241669104
 H        11.5821407561       -9.3306931721       -0.8429957073
 H        12.0832901744      -10.8638226533       -1.2498576213
 H         6.7068692619      -11.7102386079       -3.2313983360
 H         7.8208725864      -10.6280843953       -4.2650915467
 H         5.0730908834       -9.7293665501       -3.5387635800
 H         5.9042286595      -10.2461423832       -4.9845969025
 H         3.2626214609       -6.7742915783       -4.3371470716
 H         3.7338885163       -6.6945799103       -6.0649202418
 H         3.8510030394       -4.1396176040       -5.6883463643
 H         3.1256071963       -4.3065645363       -4.1860105533
 H        -1.0147191986       -4.7503812963       -5.3451112466
 H        -1.3435094680       -4.3059466751       -6.8243230490
 H        -2.5198748976       -2.8203041085       -4.3685983758
 H        -3.4520353401       -4.0396464237       -5.1807006563
 H        -6.5561306879       -1.4767445404       -7.5951619137
 H        -5.1654055578       -1.5468109465       -8.8439106011
 H        -6.5728338402       -0.2497543842       -9.9279547303
 H        -5.9453909039        1.1876180659       -8.9894241735
 H        -8.1240892655        4.4527162795      -10.0360580198
 H        -9.5084443145        3.6877105527      -10.9947057055
 H        -7.3260521300        3.3991256214      -12.8428791864
 H        -6.8970624292        4.7473484694      -11.9886844992
 H        -7.4558322565        2.7449235427      -15.9641593530
 H        -8.2540775642        3.4946767303      -17.2816016728
 H        -8.9644194820        1.0795470296      -16.8084413689
 H       -10.2335351267        2.1547582520      -17.3455876529
 H       -12.8559820995        0.5745907972      -12.6060273645
 H       -14.3405950340        0.9879475543      -13.6504040686
 H       -13.0413130356        2.9876121437      -11.6486754172
 H       -14.3849877123        1.8870519210      -11.2826563499
 H       -13.3421821707        7.6424940286      -13.4025239216
 H       -14.9856508884        7.6534952952      -12.8036104688
 H       -15.7545011996        6.8998013136      -15.0209834831
 H       -14.8101164480        5.5563579930      -14.7848007039
 H       -15.7432866040        6.6495855120      -19.5496300159
 H       -17.2522317046        6.7244454785      -18.6476948631
 H       -17.5708544515        4.8117550036      -20.0448240115
 H       -16.9285161211        4.0863113132      -18.5374514897
 H       -16.3810063438        0.1493367043      -21.0299790387
 H       -14.9967046662        1.2601222304      -20.7967389307
 H       -15.6993100270        0.5680448240      -22.4903858895
 H       -16.3999746537        5.5284561410      -22.8062746621
 H       -17.7942135928        4.9366094836      -22.0505404213
 H       -17.2234866772        4.2099340609      -23.5055802475
 H       -14.8483241099        3.0044943352      -23.4949823141
 H       -14.0962264345        2.6546102182      -21.9191988782
 H       -14.1827244951        4.2449556974      -22.6709213125
 H       -15.6442757223        8.7241616616      -16.4693251317
 H       -15.7974720145        8.5508231770      -18.2020848857
 H       -14.3402598465        9.4328705331      -17.3431397863
 H       -12.5941372477        7.8819030976      -18.1943103438
 H       -13.6613037430        6.8889157910      -19.3289659797
 H       -12.6715040847        6.1175408327      -18.1904761320
 H       -17.3960056931        5.1772280235      -11.6238822520
 H       -16.7408204706        5.0540388492      -13.2927573878
 H       -16.5073559960        6.5919011476      -12.3784899840
 H       -15.0780802241        5.7235910394       -9.9684882623
 H       -13.9445275165        4.4394349963      -10.1777483403
 H       -15.6445288723        4.0500247103      -10.0056619827
 H       -13.6736040533        1.2646942620      -16.4342882551
 H       -12.2723826124        0.5004051185      -17.3649082248
 H       -12.3872644404        2.2346040309      -17.1860094814
 H       -11.6125870584       -0.8360811023      -15.8441275936
 H       -12.7530700630       -0.6652298189      -14.5896818135
 H       -10.9848795655       -0.6046760460      -14.2948571036
 H        -7.8948421792        7.4054841023      -14.9440811327
 H        -9.4494375443        7.0647286938      -14.3644399907
 H        -9.1237620332        6.8314786625      -15.9932043877
 H        -6.0865466353        5.6677138695      -14.3837664687
 H        -6.4133293122        5.0873673315      -15.9513053912
 H        -6.4694982063        3.9735071426      -14.6813425462
 H       -10.4495008417        2.8122830733       -9.3845849046
 H       -10.5928341022        1.8963565957       -7.9941401915
 H       -10.5507088584        1.0650422883       -9.4952024343
 H        -8.5832332115        3.7312782824       -7.9986046261
 H        -6.8665060914        3.0036812526       -8.0431116361
 H        -8.2114619541        2.5281037161       -6.9272730544
 H        -6.2313669634       -2.4163868498       -5.6807358000
 H        -6.2758608493       -0.8614651285       -4.9005513793
 H        -5.3491819901       -2.2494189334       -4.1321260848
 H        -4.2818469889        0.5382474267       -4.4875428844
 H        -2.6679352866        0.2791329131       -5.0980523096
 H        -3.2878290476       -0.7267669561       -3.8304242434
 H         1.9104808904       -1.3784415326       -6.9392917371
 H         3.1417994437       -2.5743123529       -6.9093466103
 H         2.4197873385       -1.9427692504       -5.4468246683
 H         1.9537145526       -4.1629544681       -8.3980640673
 H         0.7029871313       -2.9430521284       -8.7164424369
 H         0.1762257682       -4.5618583454       -7.9800833266
 H         5.2728673517       -8.0939535080       -1.6595710069
 H         4.0960171621       -8.1873146628       -3.0412118875
 H         4.2896393700       -6.6558955140       -2.1899054710
 H         7.4312924476       -5.5269455103       -3.2679941576
 H         7.4215240367       -6.7703385441       -2.0969294130
 H         6.1419184977       -5.4395953459       -2.0592232847
 H         9.4790772077      -12.9747199899       -0.9938427395
 H         8.8618155388      -12.6582154145       -2.6633545414
 H         7.7849957407      -12.7660577993       -1.2240245281
 H         8.9011612740       -9.2370631433       -0.0500302067
 H         9.8576024399      -10.5011656683        0.6280034833
 H         8.1602230495      -10.5314260779        0.5949464629
 H        14.8794234054       -6.1219609326       -3.5862144372
 H        14.8712081419       -7.8719554390       -3.5876636605
 H        14.4428263131       -7.0660379712       -2.1118161090
 H        12.4508470725       -5.7314524858       -1.7320399308
 H        11.1336611729       -5.6159059411       -2.7816400269
 H        12.6801270742       -4.6826958699       -3.1078058553
 H        11.9145954034      -11.5487168788       -8.0008326632
 H        13.2504748883      -10.3051516197       -8.2941628758
 H        12.3386355313      -10.9898248104       -9.6304694308
 H        12.0857174822       -8.9655656632      -10.5623006143
 H        11.4530592151       -7.5938715719       -9.7148122727
 H        10.4340039405       -8.7936434722      -10.5797276099
 Na        9.3856480151       -9.3681531316       -5.1999611181
 Na      -11.5683587627        5.1935827803      -14.4560138637
