232

 C         9.2215266602      -10.9566291572       -9.5664996714
 C         9.7186620357      -10.1476452218       -8.4723679396
 O         9.0520974862      -10.0124232765       -7.4559259064
 C        11.2302139775       -9.4955327727       -8.5622122404
 C        11.5671444222       -8.6918111407       -7.2436349148
 O        11.7441814663       -9.2931182904       -6.1945296992
 C        11.6329152415       -7.0723454316       -7.3492801954
 C        11.4812192898       -6.3657613899       -5.9489533159
 C        12.8935316821       -6.3518780449       -5.1586427653
 O        13.9201390348       -5.9115690164       -5.6488608960
 C        12.8199360240       -6.7689559699       -3.6002685993
 C        11.9106852167       -7.9838068810       -3.4590485001
 O        10.7020966131       -7.9307397023       -3.6407854763
 C        12.4631497397       -9.3855917089       -2.9014445195
 C        11.3760863039       -9.8147861185       -1.8384740064
 C        10.1725561477      -10.5746149883       -2.3538451581
 O        10.2495534556      -11.0326915500       -3.4782001724
 C         8.9540043318      -10.9099556216       -1.4847999762
 C         7.7988910766      -10.0439344146       -2.1988491006
 O         7.5158090715       -8.9364904476       -1.8715671208
 C         7.1594003977      -10.6783576703       -3.4588141190
 C         6.0241673844       -9.7790057192       -4.0864505540
 C         6.4827571867       -8.3606981418       -4.2053313067
 O         7.4937692442       -8.0710587830       -4.9068459323
 C         5.7582115985       -7.1548731812       -3.5845102518
 C         5.2227582265       -6.1729887571       -4.6704792447
 O         6.0067525878       -5.4598045770       -5.2488872181
 C         3.6991167577       -6.1400352265       -5.0785250404
 C         3.3838064158       -4.8073169331       -5.7534585880
 C         1.8289432093       -4.7385409893       -5.9246181322
 O         1.1414736316       -5.7169196574       -5.8337215189
 C         1.3302972540       -3.3593696203       -6.3960514766
 C        -0.0957252759       -2.9364442525       -5.8477116325
 O        -0.2767673454       -1.8045824274       -5.5826397939
 C        -1.3813414825       -3.8642023162       -5.8647408474
 C        -2.5350008293       -3.1372722830       -5.1858291188
 C        -3.3945252911       -2.3319020472       -6.2326449396
 O        -3.3993726386       -2.6016463897       -7.3924341899
 C        -4.3043036545       -1.2155640314       -5.7406577736
 C        -4.6954068119       -0.2751313572       -7.0403313892
 O        -4.3652770938        0.8918573711       -7.1450832730
 C        -5.7745547906       -0.8691360879       -7.9613339843
 C        -6.4968894987       -0.0203473108       -8.9493645117
 C        -7.9348274260        0.4520208484       -8.5976188307
 O        -8.8268215598       -0.2847249560       -8.1832453765
 C        -8.4615789480        1.8388158039       -9.0075462037
 C        -7.9273669199        2.1913007620      -10.4772943104
 O        -7.6251119288        1.3343134716      -11.2556216433
 C        -8.2822412742        3.5831006408      -11.0943340706
 C        -7.7203099650        3.7869926330      -12.4920258738
 C        -8.6963260221        4.6733779274      -13.4017524040
 O        -9.7602949993        5.0811633318      -13.0347888154
 C        -8.1951788252        5.0579741873      -14.8149032055
 C        -9.1145598296        4.1108665008      -15.6255189461
 O       -10.2699465646        4.3496855956      -15.9318512037
 C        -8.5010761627        2.8366774933      -16.2114145790
 C        -9.7333160654        2.0252354106      -16.5763286580
 C       -10.4653109998        1.7298706576      -15.3061456087
 O        -9.8298621762        1.8762727638      -14.3035611930
 C       -11.9511028534        1.2163440279      -15.2247061061
 C       -12.7932535068        2.0061087575      -14.1598304660
 O       -12.7793344602        3.1990884661      -14.2885974841
 C       -13.7035486480        1.3286562863      -13.1180790314
 C       -14.0717516219        2.2997077973      -12.0034755828
 C       -15.1326162630        3.2849353423      -12.4539570473
 O       -15.9840770385        2.9726836055      -13.2666009830
 C       -15.2307824143        4.7353538388      -11.8484831858
 C       -14.0127003244        5.6518748357      -12.5631768345
 O       -12.8771030224        5.1868799783      -12.3883631934
 C       -14.2609055629        7.0478129276      -13.1622866272
 C       -14.8440307478        7.0188158323      -14.6178307848
 C       -13.8903959380        7.1478391158      -15.8784925398
 O       -12.6389757007        7.0676752679      -15.7554683962
 C       -14.4569866790        7.2393092883      -17.2283889033
 C       -15.5521228186        6.1119026528      -17.6909377364
 O       -15.6960443029        5.0996412258      -16.9633760788
 C       -16.1358791296        6.2191817823      -19.1227009731
 C       -16.7006087599        4.8389234115      -19.4596144246
 C       -15.5394634434        4.1154635505      -20.2436225648
 O       -14.4675340148        3.8698715416      -19.7247183265
 C       -15.8277279023        3.5431048538      -21.6466870587
 C       -16.7424533463        2.1695465780      -21.2825660958
 O       -17.9308478719        2.3955961807      -21.2072172723
 C       -16.2012658918        0.7717828447      -21.2895370895
 C       -16.7476568493        4.5007873166      -22.4652456043
 C       -14.4773572017        3.3006394595      -22.4868833764
 C       -15.0048885765        8.7997362685      -17.3172654249
 C       -13.2902702679        7.1790832848      -18.3517521484
 C       -16.6539320700        5.3283845087      -12.1758196195
 C       -15.0135687537        4.7095150430      -10.2542445036
 C       -12.6779060036        1.3401513500      -16.5624343749
 C       -11.9875292254       -0.3022364044      -14.7328526448
 C        -8.5714882824        6.4851908337      -15.1078270480
 C        -6.6642918773        4.8824754962      -15.0114490242
 C       -10.0278519102        1.9177582060       -9.0922248786
 C        -7.9573942622        2.9302253263       -7.9968054657
 C        -5.4305725856       -1.8765193168       -4.9730397913
 C        -3.6941550360       -0.2389359923       -4.8015519935
 C         2.2953971005       -2.1914831286       -6.0723904827
 C         1.1424218612       -3.5003998595       -7.9590283472
 C         4.5906076166       -7.5988404814       -2.6536456422
 C         6.8908940419       -6.3623823882       -2.8429729470
 C         8.6384176973      -12.4427542087       -1.4418923823
 C         8.9703712639      -10.4829723140       -0.0169582889
 C        14.2032971179       -7.1802537104       -3.0849231084
 C        12.1177178439       -5.6346416236       -2.6791462765
 C        12.3270036581      -10.6962421924       -8.4832526103
 C        11.1011796177       -8.6041056323       -9.8119195346
 H        10.0874261020      -11.3069402369      -10.1688213825
 H         8.4781610664      -10.4234202322      -10.1949411115
 H         8.7348173810      -11.7759694524       -9.0830469886
 H        10.9256669568       -6.7048831518       -8.0309268350
 H        12.6101968744       -6.9102254444       -7.8425874313
 H        10.5948343425       -6.7209709489       -5.4189105810
 H        11.1462744807       -5.3229299540       -6.0536114067
 H        13.4649500888       -9.4062163140       -2.5544613645
 H        12.2379760800      -10.2013295164       -3.5576222421
 H        11.3171865638       -8.9126236585       -1.2725365178
 H        11.7867279753      -10.5381858684       -1.0680799603
 H         6.8788831077      -11.6839976247       -3.1557084068
 H         8.0630637463      -10.5436462731       -4.0977971690
 H         5.0700797316       -9.8729998660       -3.5266979504
 H         5.8194892848      -10.2076128828       -5.0517392844
 H         3.1363494662       -6.2511751597       -4.1553425572
 H         3.5422362315       -6.9627134427       -5.7996192343
 H         3.9802545107       -4.5886095181       -6.7181411810
 H         3.6524365166       -3.9288037273       -5.1621233374
 H        -1.1726347951       -4.8469993850       -5.4458388226
 H        -1.7147292447       -4.2878651509       -6.7835769128
 H        -2.2764814762       -2.4485891816       -4.3153467960
 H        -3.1362448837       -3.9409190393       -4.7844678102
 H        -6.4729388661       -1.4554120184       -7.3824726121
 H        -5.2288156351       -1.5021878798       -8.5195956681
 H        -6.7131638584       -0.7132019782       -9.8113527574
 H        -5.8820717262        0.8723890561       -9.1280940159
 H        -8.1120721362        4.2742115907      -10.3515168092
 H        -9.3326752916        3.5565847500      -11.2324856413
 H        -7.6763189397        2.7821522295      -13.0321837964
 H        -6.7266534465        4.2832480504      -12.5912671829
 H        -7.8649563029        2.4580297298      -15.4721320428
 H        -7.7869462161        3.0126632552      -17.0086979693
 H        -9.3800771212        1.0467597791      -17.0591335887
 H       -10.3954177986        2.4929528318      -17.3492683895
 H       -13.2009246136        0.5177556429      -12.7229073824
 H       -14.6482958474        1.0739127493      -13.5515343531
 H       -13.1568237541        2.7605251650      -11.6545789013
 H       -14.4605314195        1.6797798788      -11.1951067760
 H       -13.2382633317        7.5254656682      -13.2591778588
 H       -14.8944505202        7.6773145345      -12.5030427330
 H       -15.6439947734        7.7888211732      -14.7503397242
 H       -15.3961441815        6.1278333944      -14.8848235604
 H       -15.2369800067        6.4244126990      -19.7998887287
 H       -16.9336420677        6.9769949803      -19.1875291239
 H       -17.6460404004        4.9936991685      -20.0169204542
 H       -16.7579751710        4.2251065737      -18.5248681268
 H       -16.9773219962       -0.0274876083      -21.3259539166
 H       -15.6798178911        0.6698717557      -20.3468212075
 H       -15.6218968097        0.5366262059      -22.1340273328
 H       -16.5937640876        5.5349353642      -22.5329318595
 H       -17.7557291205        4.4940606300      -22.0790617395
 H       -16.8451387823        4.1953134852      -23.4999290994
 H       -14.8873976488        3.4812199661      -23.5452721941
 H       -14.1495829808        2.2890396299      -22.3318479268
 H       -13.7738619136        4.1687931185      -22.2765100677
 H       -15.1757483497        9.2765818466      -16.3154578531
 H       -15.7902819602        8.9645228157      -18.0430763380
 H       -14.0877411582        9.3189396340      -17.4504187404
 H       -12.4667302228        7.8192749359      -17.9402460585
 H       -13.6397825916        7.5435918683      -19.3175846683
 H       -12.8794139609        6.1888287323      -18.4356930695
 H       -17.2797292900        4.5546941920      -11.7501908109
 H       -16.8392154357        5.3991960175      -13.2268104882
 H       -16.6863748222        6.2471500334      -11.5356137130
 H       -15.2712678156        5.7151661854       -9.8057319411
 H       -14.0455114172        4.3746115358       -9.8549010525
 H       -15.7956246214        3.9761994300       -9.8327624255
 H       -13.7192535830        1.3146980252      -16.4977897424
 H       -12.2432467092        0.6087176707      -17.2952532679
 H       -12.2968459176        2.2610510496      -17.1059301583
 H       -11.2269698507       -0.9976016885      -15.0750474563
 H       -12.9654169326       -0.7644808292      -14.9603847233
 H       -11.7922049449       -0.3229529060      -13.7103068929
 H        -7.9427289539        7.2153151464      -14.6742338043
 H        -9.6405028879        6.7235483449      -14.7236537311
 H        -8.5893368053        6.6768232752      -16.1724271434
 H        -6.2472152968        5.7639870711      -14.5233284266
 H        -6.3445274016        4.9163187895      -16.0470684329
 H        -6.1940320808        3.9883491235      -14.6388066753
 H       -10.5072746362        2.9963427063       -8.9866833939
 H       -10.5133673379        1.4575657241       -8.2389413091
 H       -10.3824467139        1.2326118209       -9.8776029224
 H        -8.0536239115        3.9832188111       -8.3504331202
 H        -6.9241908521        2.6288687098       -7.8297001850
 H        -8.5518351200        3.0235089503       -7.0756539866
 H        -6.0195643158       -2.5122981176       -5.6357848630
 H        -6.1476915753       -1.1221214366       -4.5301223621
 H        -4.9860634463       -2.4837825272       -4.1992400274
 H        -4.2937767303        0.6638101679       -4.4431476581
 H        -2.8097359952        0.2019472704       -5.2878959350
 H        -3.3264628406       -0.6586599198       -3.8942141879
 H         1.8369900733       -1.2385580904       -6.1639105555
 H         3.2084997170       -2.2790417275       -6.7444558485
 H         2.5715003396       -2.2385394764       -4.9938104939
 H         2.0701582846       -3.9372808999       -8.2913346645
 H         1.1432732483       -2.5735231283       -8.4186765438
 H         0.2380262681       -3.9683666117       -8.2892048765
 H         4.9487375465       -8.1167058437       -1.8168341315
 H         3.8014517533       -8.1781851906       -3.1926310354
 H         4.1286566914       -6.6854224474       -2.3326740868
 H         7.4312165363       -5.8536914314       -3.6815875587
 H         7.6171978600       -6.9108599104       -2.1520285898
 H         6.3967291784       -5.4811651319       -2.3566131247
 H         9.1930373283      -13.1230878493       -0.8256772926
 H         8.5797276111      -12.7756251293       -2.4773554403
 H         7.6279034782      -12.5290500797       -0.9725285147
 H         9.2290792981       -9.3925745101        0.1163258641
 H         9.6046405478      -11.0666490832        0.6650893860
 H         7.9357143914      -10.4757521409        0.4216484764
 H        14.9014990963       -6.3843849176       -3.0859826184
 H        14.6234143932       -7.8844909026       -3.7910661259
 H        14.2542970165       -7.5945851675       -2.0403926658
 H        12.0106027836       -5.9019610053       -1.6455038726
 H        11.1098403472       -5.4428161278       -3.0623009194
 H        12.7464108077       -4.7577829461       -2.7422088534
 H        12.2118852769      -11.1177385629       -7.5117128920
 H        13.3053321484      -10.3342652018       -8.6150293632
 H        12.1953463135      -11.5510159280       -9.1491480834
 H        11.8732659192       -8.5929709233      -10.5313186630
 H        10.9100614326       -7.5691495950       -9.6915893822
 H        10.3224927329       -9.0059837240      -10.4431702968
 Na        9.5668439436       -9.4869863763       -5.2226537842
 Na      -11.7150119154        5.5233697017      -14.3251589023
