232

 C         9.0748463905      -10.5610127224       -9.5696811707
 C         9.9257176666      -10.0370576021       -8.3716095191
 O         9.5131359191      -10.1784584163       -7.2407749097
 C        11.2924601531       -9.4139166107       -8.6276507663
 C        11.6678221384       -8.5307409475       -7.3668638346
 O        11.6914411068       -8.9865372262       -6.2326861216
 C        12.0465312738       -7.0778104748       -7.5740168256
 C        11.7841942085       -6.2110658864       -6.2254617064
 C        12.9707455081       -6.1338822071       -5.2855238078
 O        14.0005479550       -5.5817880334       -5.5545322673
 C        12.7825362023       -6.6945760556       -3.6277420105
 C        11.8367411021       -7.9372200350       -3.5556560710
 O        10.6367262922       -7.7212983890       -3.7403668344
 C        12.3734894105       -9.3126385364       -3.1055987336
 C        11.3504522559       -9.9052166138       -2.0650164581
 C        10.1465058348      -10.7951122897       -2.4685060984
 O        10.1168917350      -11.2405283031       -3.6275482902
 C         8.9189696379      -11.2046677458       -1.4796758089
 C         7.6224764438      -10.3205604664       -2.1253045866
 O         7.4257384841       -9.1813852138       -1.7239438166
 C         6.8070089557      -10.8443854813       -3.3961514863
 C         5.9846584473       -9.6369820156       -4.0734344838
 C         6.5908177757       -8.2627498858       -4.0601889349
 O         7.7323718472       -8.0173577519       -4.5865777005
 C         5.7101730720       -7.0920910770       -3.5858238366
 C         5.2203145015       -6.2140883615       -4.8933669690
 O         5.9788087762       -5.6037665080       -5.5944867121
 C         3.6632206626       -6.0663803864       -5.1030796937
 C         3.2327829921       -5.2383859945       -6.3620868182
 C         1.7818288444       -4.5807180358       -6.0637167186
 O         0.9773427056       -5.3581697344       -5.5684018553
 C         1.3974111801       -3.0856288644       -6.4764747871
 C         0.0076992001       -2.6238282267       -5.9458938215
 O        -0.3248963683       -1.4790592354       -5.7275529764
 C        -1.1625653269       -3.7457989224       -5.7595118872
 C        -2.5345483036       -3.2872227007       -5.2814325326
 C        -3.4070690338       -2.4884981704       -6.2586435797
 O        -3.3489375212       -2.7506696262       -7.4423873332
 C        -4.3091322996       -1.3602846202       -5.5625910470
 C        -4.9268290850       -0.3851268399       -6.7607333628
 O        -4.4908928177        0.7321928926       -6.8730016992
 C        -5.9765076770       -1.0061020668       -7.7934280484
 C        -6.4397213180       -0.1524337191       -9.0100427751
 C        -7.9093297630        0.2518436421       -8.7152676103
 O        -8.7761546426       -0.4264248808       -8.1714370986
 C        -8.2607044649        1.7608446301       -9.1075841682
 C        -7.7266475098        2.0125667847      -10.6275681062
 O        -7.1253981466        1.2524986497      -11.3331411246
 C        -8.2474198803        3.3632147351      -11.3176555434
 C        -7.8409338584        3.3436968986      -12.8088480786
 C        -8.4861919187        4.6398165733      -13.5529544821
 O        -9.2946648728        5.3437057665      -13.0346199259
 C        -8.0910416066        4.8857389946      -15.1355796302
 C        -9.2088972608        4.1555736302      -15.8806984623
 O       -10.3487009135        4.5569507126      -15.9021554699
 C        -8.8075025640        2.7480404825      -16.5175802173
 C        -9.8602841557        1.6383502746      -16.4911203742
 C       -10.7414285591        1.6133708772      -15.2454776021
 O       -10.2993618146        2.1559865209      -14.2591522451
 C       -12.2753831556        1.0388248500      -15.1982648186
 C       -12.9979477693        1.9932758268      -14.1152576157
 O       -12.8206183068        3.1848951764      -14.1102864053
 C       -13.7792243899        1.3751306053      -12.9668382964
 C       -14.1684122646        2.4691858300      -11.9617736722
 C       -15.3376658880        3.4536461629      -12.4216758932
 O       -16.2593715500        3.0475279491      -13.0466015206
 C       -15.3323930419        4.9146585374      -11.7983640686
 C       -14.3061064409        5.7467505379      -12.5769340401
 O       -13.1185213832        5.3932829764      -12.4477340536
 C       -14.6838282929        6.9868030873      -13.2515943606
 C       -15.1214502310        6.7047311462      -14.7133435830
 C       -13.9824061699        6.9384251179      -15.7625739050
 O       -12.8055055556        6.7447356621      -15.3957592507
 C       -14.4719494262        7.4298036978      -17.1785032584
 C       -15.3117720795        6.0960592798      -17.7064801035
 O       -15.2821137986        5.0363733423      -17.0469702349
 C       -16.3522742835        6.3448084190      -18.8249402715
 C       -16.6999841110        5.0502028242      -19.6551029208
 C       -15.4316441058        4.3749465200      -20.3065509127
 O       -14.3550968519        4.6634937672      -19.8810301021
 C       -15.6740554415        3.4438401544      -21.5275836348
 C       -16.8775125141        2.3357939440      -21.1565434903
 O       -17.8417478143        2.7483767258      -20.6772088027
 C       -16.4251103758        0.8231627205      -21.1128245008
 C       -16.2679483791        4.1109536545      -22.8136979790
 C       -14.3556960918        2.8029388441      -21.8563132421
 C       -15.3414601677        8.7575611006      -17.2452878251
 C       -13.1294567811        7.7241627802      -17.9723810480
 C       -16.7935565795        5.5005072827      -11.8883114737
 C       -15.0691007655        4.7109434840      -10.2778402199
 C       -13.0068998635        1.3252968326      -16.4901053045
 C       -12.2343148331       -0.4297929974      -14.7327537903
 C        -8.2751363961        6.4180455625      -15.3313840860
 C        -6.6722423745        4.3091265330      -15.3669817803
 C        -9.7661586039        1.8680224463       -9.1465438273
 C        -7.5465702157        2.7710915938       -8.1467962963
 C        -5.4031949499       -1.9800993797       -4.7325923880
 C        -3.3204180180       -0.4429293666       -4.7451543178
 C         2.5502620016       -2.1972685589       -5.9106386024
 C         1.3836523169       -3.0045040921       -8.0225083161
 C         4.5479699120       -7.4248462718       -2.6825904760
 C         6.7616773640       -6.1324599561       -2.9017277797
 C         8.5733393920      -12.6844040723       -1.5892910847
 C         8.9896583171      -10.7075462889        0.0291141761
 C        14.2214136065       -7.0810879044       -3.1400428969
 C        12.0378713848       -5.5218637469       -2.8272047154
 C        12.3599787339      -10.5406111947       -8.5919730023
 C        11.1903143725       -8.6300545968       -9.9439164539
 H         9.1270595062      -11.6717663361       -9.4186968986
 H         9.5578108353      -10.1950810746      -10.5295606899
 H         8.0207771498      -10.3265491357       -9.6313990524
 H        11.6389558918       -6.6791222651       -8.4090680660
 H        13.0996941817       -6.9754263347       -7.6193592877
 H        10.9104791195       -6.4252709077       -5.6286765438
 H        11.6121213764       -5.2235602907       -6.6076140688
 H        13.3727749029       -9.2626327854       -2.6143478806
 H        12.5374525911       -9.8669987071       -4.0143471272
 H        11.1791569338       -9.1259451795       -1.3303302495
 H        12.0082799088      -10.5323924588       -1.4314755929
 H         6.2845936902      -11.7764603171       -3.0287283058
 H         7.6375509020      -11.1716351178       -4.0979960784
 H         5.0156073948       -9.6614821502       -3.5260653722
 H         5.7594677752       -9.9945327241       -5.0739013971
 H         3.2943355157       -5.6554151101       -4.1795250119
 H         3.3586115381       -7.1046581521       -5.2006033349
 H         2.9502020035       -5.9315831630       -7.2304628463
 H         3.9601860026       -4.4955156553       -6.7590514985
 H        -0.9026508457       -4.6164905028       -5.0659546753
 H        -1.1156544996       -4.3036915054       -6.7344530962
 H        -2.4142874259       -2.8064301091       -4.2959144599
 H        -3.1369545816       -4.1483475318       -5.1672249140
 H        -6.8355426686       -1.4052198403       -7.2919606177
 H        -5.4768654765       -1.8180800490       -8.2283732097
 H        -6.3896957437       -0.8442150861       -9.8677013718
 H        -5.9254411941        0.8033790004       -9.0198373179
 H        -7.7893428067        4.2002281645      -10.8845102839
 H        -9.3027825303        3.4672986542      -11.0558363237
 H        -8.4373109057        2.6289629702      -13.3420148071
 H        -6.7753887835        3.1312450264      -12.8396281039
 H        -8.0202792371        2.4963574764      -15.9259939959
 H        -8.3279177519        2.9798691508      -17.4314504557
 H        -9.4251835957        0.6366205817      -16.6733131588
 H       -10.5487859106        1.6789163118      -17.3509576307
 H       -13.1879385792        0.6898273410      -12.4668516281
 H       -14.6968771567        0.9520281671      -13.3695286797
 H       -13.2406472844        2.8627528032      -11.5069925371
 H       -14.6053484761        1.9081939462      -11.2362206871
 H       -13.7362197637        7.6121351402      -13.3010953812
 H       -15.5732051971        7.4574974381      -12.7824137552
 H       -15.8780099883        7.4849903632      -14.9889981183
 H       -15.5643599637        5.7137839711      -14.8171747936
 H       -15.8838163736        7.1173204384      -19.4663724810
 H       -17.2561575811        6.5829098523      -18.2977236765
 H       -17.4747270675        5.1964518974      -20.4212205836
 H       -17.0282859056        4.4082862186      -18.8624718304
 H       -17.0964814845        0.2026387252      -20.4925055016
 H       -15.4631172778        0.7721659976      -20.5048131885
 H       -16.2981457350        0.2891539039      -22.0686509109
 H       -15.8001553864        4.9608465117      -23.1981907834
 H       -17.2441492473        4.5779263529      -22.5871023370
 H       -16.4402943216        3.4321107081      -23.6685726267
 H       -14.4939032676        1.8940386806      -22.3706386544
 H       -13.8039319167        2.6108125501      -20.9544281483
 H       -13.8102684962        3.6598639720      -22.3550828407
 H       -16.4519584422        8.5818875328      -17.0928728661
 H       -15.0451145471        9.1898669453      -18.1949430212
 H       -15.0462121612        9.4982657443      -16.4843164624
 H       -12.4278932901        8.4900798699      -17.6511993823
 H       -13.6050597465        8.1390610402      -18.8454822376
 H       -12.6463581844        6.8321273857      -18.1608518070
 H       -17.5086585293        4.9991015758      -11.2301382275
 H       -16.9377037268        5.2702112883      -12.9250510990
 H       -16.7157347790        6.5812944734      -11.5946597784
 H       -15.2698063821        5.6357343431       -9.7696502523
 H       -14.0628322939        4.3168506487      -10.1716556440
 H       -15.7848250829        3.9998176955       -9.7378733411
 H       -13.9842884472        0.9473930838      -16.3409115428
 H       -12.6048747500        0.8222040282      -17.5059620660
 H       -13.0251908435        2.3367215292      -16.8534883198
 H       -11.9504590037       -1.1981495018      -15.4571513532
 H       -13.2846029033       -0.6947427685      -14.4552164026
 H       -11.6613311242       -0.5457380311      -13.8400095877
 H        -9.0959655298        6.7884905636      -14.8542742061
 H        -8.4737367620        6.5534194996      -16.4177184881
 H        -7.3749514609        6.9627171656      -15.0735753534
 H        -5.9538008678        4.9751144913      -15.0153010571
 H        -6.4299549538        3.9504487100      -16.3713027864
 H        -6.5510749954        3.4990367424      -14.6544432887
 H       -10.0441159856        3.0028870996       -9.0791078470
 H       -10.3482333891        1.4723149560       -8.3215765400
 H       -10.2149173544        1.4101528747      -10.0601988254
 H        -8.0920239082        3.7135530597       -8.1734475581
 H        -6.6192237226        3.1064319873       -8.6764816444
 H        -7.4115409989        2.4595234414       -7.0180765726
 H        -6.0875518478       -2.5855539347       -5.3143157592
 H        -5.9884235387       -1.0828078595       -4.3618598667
 H        -5.0915975872       -2.3886723104       -3.7765441756
 H        -3.8340377440        0.5304221091       -4.3669717414
 H        -2.4785649399       -0.0266755933       -5.3890180886
 H        -3.0858063928       -0.7531016704       -3.7987481112
 H         2.3130465580       -1.2030597644       -6.1805155399
 H         3.5751610906       -2.3860163495       -6.2393745462
 H         2.5255245245       -2.2932520686       -4.8813499859
 H         2.4326795991       -2.9960958835       -8.3964238058
 H         0.8061987729       -2.0855925404       -8.3624730390
 H         0.8618053196       -3.8767439450       -8.5186529559
 H         5.0566871966       -7.8257992594       -1.8087911996
 H         3.8351169448       -8.1853805428       -3.0754249893
 H         4.0371340801       -6.5338649234       -2.4598407863
 H         7.5702631224       -5.9631202210       -3.6327738675
 H         7.1180514182       -6.5750100582       -1.9131794378
 H         6.4211394354       -5.0923850872       -2.5968644224
 H         9.3381003812      -13.3043318712       -1.0685775417
 H         8.5496483703      -13.0785954430       -2.6131447724
 H         7.7177981568      -12.8934543316       -0.9749924343
 H         8.5845111382       -9.7107102688        0.1200699783
 H        10.0077754049      -10.4441273238        0.2637387977
 H         8.5951451789      -11.4186618144        0.7484215470
 H        14.9628413015       -6.2736971052       -3.2437886951
 H        14.5981107782       -7.9806127931       -3.5842221480
 H        14.1486618607       -7.1642883432       -1.9776186557
 H        12.2918191516       -5.7092209447       -1.7966216452
 H        10.9310361801       -5.5835616025       -2.9694253744
 H        12.3253901547       -4.5248750645       -3.1034637472
 H        12.0743922188      -11.2332767491       -7.7815989030
 H        13.3550274901      -10.1240751467       -8.2875202084
 H        12.4216567444      -11.2274040428       -9.4783469205
 H        11.9188292015       -7.8571794050      -10.1647425816
 H        10.1719523636       -8.1570019650      -10.1696764922
 H        11.3783283576       -9.4218483003      -10.7708324352
 Na        9.5027258503       -9.4990259784       -5.0378458008
 Na      -11.4746272738        5.2001061477      -14.0098844627
