232

 C         9.4053321691      -10.3129706182       -9.8515411405
 C         9.9627041937       -9.6494928657       -8.6119502413
 O         9.2402371303       -9.6363294792       -7.6109776906
 C        11.4178920561       -9.1953842838       -8.6319789711
 C        11.7211957569       -8.1670218090       -7.3383254800
 O        11.9168896594       -8.5848641505       -6.2170807409
 C        11.6512404894       -6.6087272250       -7.5096051420
 C        11.9263075465       -5.9390042707       -6.1409478982
 C        13.0577104079       -6.5245725717       -5.2891549709
 O        14.0370795947       -7.1083343210       -5.5834037459
 C        12.7963368248       -6.4030144225       -3.6132533554
 C        11.7889954876       -7.6176239936       -3.4742193745
 O        10.6357773959       -7.4166495403       -3.8274447454
 C        12.1559059697       -9.1620752999       -3.0271575466
 C        11.0934751655       -9.7420527622       -2.0775112795
 C        10.0683034224      -10.7392374805       -2.6969534638
 O         9.8075270064      -10.8959128893       -3.8806906471
 C         9.0207900333      -11.3050796510       -1.7411255585
 C         7.6561181300      -10.5250917463       -2.1515169236
 O         7.2395355592       -9.7085727520       -1.3015800446
 C         6.8535217372      -10.7267443705       -3.4445040042
 C         5.8296130011       -9.5954081392       -3.9387676754
 C         6.5290174946       -8.2669393304       -4.0404249876
 O         7.6946272474       -8.1680063616       -4.4962483859
 C         5.7592212296       -6.9308858117       -3.7455196996
 C         5.0799994243       -6.6906573502       -5.0768683119
 O         5.6186782254       -6.8345449417       -6.1166923290
 C         3.6694720475       -6.0723692208       -5.0245014370
 C         3.3159265691       -5.0498375301       -6.2023802664
 C         1.9056610828       -4.4253141927       -5.9276727939
 O         1.2478049150       -5.1979659930       -5.2157107452
 C         1.3681776873       -3.0277705695       -6.3928132082
 C        -0.0187304873       -2.7020845921       -5.8444451356
 O        -0.2681755189       -1.6577074768       -5.2709362679
 C        -1.0384765944       -3.7658918465       -6.1472065249
 C        -2.4749446592       -3.4851696051       -5.5557920928
 C        -3.3072757471       -2.3947971784       -6.4054470207
 O        -3.0341339415       -2.2789236589       -7.6044346137
 C        -4.2054409154       -1.3484635462       -5.6284774787
 C        -4.9590385029       -0.4810007501       -6.7270253950
 O        -5.0706058863        0.7249493055       -6.6875110619
 C        -5.7724656071       -1.3233791770       -7.7142520555
 C        -6.1952917380       -0.5174489553       -8.9687258378
 C        -7.5466564490        0.1850769310       -8.8110023063
 O        -8.5430909984       -0.4030295536       -8.4309785397
 C        -7.7207903339        1.6426727554       -9.3343245028
 C        -7.4402982339        1.7713244764      -10.9498311442
 O        -6.5385485982        1.1604602358      -11.4834030273
 C        -8.2783948761        2.7375306770      -11.6910850893
 C        -7.5674748379        3.2362139100      -12.9567501750
 C        -8.5668079114        4.0635804627      -13.8025231957
 O        -9.6252610246        4.4392399366      -13.3312603207
 C        -8.0516023302        4.2895732699      -15.2053777022
 C        -9.2207627637        3.8811614292      -16.1269609238
 O       -10.2618504990        4.4812102239      -16.2500965610
 C        -9.1548951335        2.3960321335      -16.6083256156
 C       -10.5739645511        1.7931130821      -16.5788179241
 C       -11.2642715548        1.8028666685      -15.2165405534
 O       -10.7871118045        2.2549531769      -14.1778317245
 C       -12.7756657846        1.2742489617      -15.0628596382
 C       -13.2815416879        2.1864470903      -13.7877292745
 O       -13.2531155646        3.4001749912      -13.8448408629
 C       -14.0806497359        1.5057160006      -12.6366153159
 C       -14.4886516624        2.5409334982      -11.6360910217
 C       -15.5667901379        3.5648820047      -12.1630554880
 O       -16.3246341759        3.3834066624      -13.0566252142
 C       -15.6114817158        4.9538441705      -11.2812139085
 C       -14.4836023640        5.7408226512      -12.0556283462
 O       -13.3021146478        5.6105385647      -11.7045015893
 C       -14.7697064169        6.6022701317      -13.2399620365
 C       -14.9073996509        5.9206048188      -14.7198772036
 C       -13.8631670571        6.5037954807      -15.6810912714
 O       -12.6460279438        6.5626740980      -15.5194070862
 C       -14.3951159462        7.1554729414      -16.9380326595
 C       -15.2729389199        6.1516652121      -17.9543995979
 O       -15.4165145718        4.9745050936      -17.6927269192
 C       -16.0306930324        6.8506333231      -19.1403830437
 C       -16.5715165449        5.7100442634      -20.0616016268
 C       -15.3983962139        4.9480454934      -20.6607310718
 O       -14.3095523112        5.4678644220      -20.5638019798
 C       -15.5110014210        3.4263266216      -21.1534968345
 C       -16.7059164514        2.5330037507      -20.6513572635
 O       -17.6404542827        3.1792062989      -20.3195611741
 C       -16.6803285288        0.9374403613      -20.6122021235
 C       -15.5683073692        3.2111534063      -22.7222959269
 C       -14.0929913042        2.8023664168      -20.8134603334
 C       -15.2434455562        8.3699631165      -16.5639457104
 C       -13.1619070296        7.7677429363      -17.8281735205
 C       -17.0353106583        5.6801693971      -11.3103680570
 C       -15.1131450430        4.7591377439       -9.8070773229
 C       -13.5977340186        1.6237120504      -16.2979578416
 C       -13.0099861550       -0.1914922411      -14.6535084505
 C        -8.0236212276        5.8578775069      -15.3015758441
 C        -6.6746976045        3.6463201270      -15.5799636950
 C        -9.1818677767        2.0587961255       -9.0652736949
 C        -6.8029686450        2.6180212891       -8.5188034658
 C        -5.2153898505       -1.9994788361       -4.6961234573
 C        -3.2979453172       -0.3055640962       -4.8350140234
 C         2.4137004438       -1.9033435568       -5.9151085790
 C         1.3603226783       -3.0704312348       -8.0297562875
 C         4.8565288909       -6.9754821521       -2.4866446450
 C         6.7876621851       -5.7449381701       -3.4807054401
 C         8.8176193691      -12.8362320144       -2.1568759144
 C         9.1936025566      -11.3607868293       -0.1190195054
 C        14.1844014048       -6.7166340436       -3.0350856757
 C        12.1221049445       -5.1079223478       -3.3135483124
 C        12.4548255514      -10.3534557834       -8.3335991347
 C        11.6794414761       -8.3838041013       -9.9959937243
 H         9.2238021861       -9.5958653925      -10.6321807905
 H         8.4255328122      -10.7639082349       -9.5631888002
 H        10.0826714429      -11.0826952585      -10.1191902165
 H        10.6836959885       -6.2780784375       -7.9796255630
 H        12.5635803809       -6.2169141761       -8.1593929794
 H        11.0191541006       -6.1295260890       -5.5188318045
 H        12.0802533460       -4.8755019765       -6.4303312298
 H        13.1453969842       -9.0107821466       -2.5637286517
 H        12.4417195790       -9.7134057196       -3.9530971173
 H        10.5840958810       -8.9267539513       -1.4875167840
 H        11.5296476272      -10.4078314657       -1.2842273818
 H         6.4169723551      -11.7204109582       -3.3152609255
 H         7.6039502215      -11.0514511367       -4.2140935047
 H         5.0109324838       -9.6346329739       -3.1669815552
 H         5.3766723286       -9.9738606666       -4.8135503290
 H         3.5697319098       -5.6157041632       -4.0044964485
 H         3.0069945754       -6.9620647803       -5.0263085457
 H         3.1644911077       -5.6479597860       -7.0983395641
 H         4.0320961266       -4.3033678483       -6.3132477816
 H        -0.6870387444       -4.5342664525       -5.4408539601
 H        -1.0349879057       -4.0431100044       -7.1817930871
 H        -2.4681446784       -3.1458658660       -4.4553846286
 H        -3.0517510954       -4.4138040855       -5.6415312269
 H        -6.7724855487       -1.6175026192       -7.1205495712
 H        -5.3384322060       -2.3253670232       -7.9714586418
 H        -6.3585854729       -1.2582684107       -9.8055836108
 H        -5.4055318570        0.1306336135       -9.3080586390
 H        -8.5939909548        3.6251163227      -11.1204147212
 H        -9.2413473250        2.1792178047      -12.0051350567
 H        -7.3302193034        2.3716463496      -13.5878900238
 H        -6.7030233190        3.8853771280      -12.6673623446
 H        -8.4984410044        1.8651424165      -15.8726312833
 H        -8.7186642352        2.5199603665      -17.6885053284
 H       -10.6835386579        0.7758388179      -17.0210331208
 H       -11.1963536124        2.3861973275      -17.2565932426
 H       -13.5771213522        0.6322594662      -12.1788976118
 H       -14.9963380959        1.1736683682      -13.2477016460
 H       -13.5723831604        3.0042620613      -11.1222264897
 H       -14.9715560161        2.0757557392      -10.7974846999
 H       -14.0546822247        7.4118075985      -13.3089143970
 H       -15.7074666374        7.1006608380      -13.1251194622
 H       -15.9171294787        6.0910973523      -15.1565522869
 H       -14.6911674720        4.8646481438      -14.7107466315
 H       -15.3769683565        7.6570678029      -19.5836170245
 H       -16.9168992058        7.3821217870      -18.8033188354
 H       -17.2090036536        6.1193180143      -20.8717122435
 H       -17.3353535492        5.1369623258      -19.5094932834
 H       -15.8892784180        0.2228863121      -20.5924081476
 H       -17.4320394028        0.6049301811      -21.3084773573
 H       -17.1783005162        0.5881991477      -19.7514704428
 H       -14.7081555762        3.5439728781      -23.2003313328
 H       -16.3852894509        3.6889644170      -23.2543833686
 H       -15.6882831747        2.1928954315      -23.0732975064
 H       -14.0359368600        1.8156808807      -21.1908219225
 H       -13.8560795168        2.9779054674      -19.7331665095
 H       -13.4056534841        3.4050108282      -21.5202768583
 H       -16.3068670729        8.0072753651      -16.4479105390
 H       -15.4174749586        8.9884644045      -17.4128109554
 H       -14.8859921045        8.9204964662      -15.7219930733
 H       -13.3015111090        7.6842244287      -18.9437927558
 H       -12.2497669116        7.2845408083      -17.4676675188
 H       -12.9665546904        8.7813470546      -17.5909843167
 H       -17.5362885995        5.3514657556      -10.4267657548
 H       -17.5106153855        5.5287434324      -12.2606151786
 H       -16.6833247568        6.7395747276      -11.2147125598
 H       -15.2817102311        5.7285150775       -9.3756904047
 H       -14.0785906600        4.5808391445       -9.5684290397
 H       -15.7376921717        3.9206540495       -9.4088260964
 H       -14.6274163404        1.6506459244      -16.0616164757
 H       -13.6275547925        0.8021435010      -17.1127806513
 H       -13.5373993586        2.6029471404      -16.6547132214
 H       -12.5878922367       -0.9141272853      -15.3401366073
 H       -14.1215600609       -0.2343125951      -14.6859258457
 H       -12.7619656649       -0.3720511512      -13.6506351907
 H        -8.7833784465        6.3347435764      -14.6955546959
 H        -7.9958289371        6.0980215625      -16.3911296273
 H        -7.0190599070        6.1770481661      -14.8714707857
 H        -5.8693757863        4.2901281279      -15.3776355477
 H        -6.6609312221        3.5958290282      -16.6903343539
 H        -6.5198383829        2.6006178756      -15.2452551674
 H        -9.1719059200        3.1616040275       -9.1870909829
 H        -9.5343388841        1.8906564179       -8.0599680153
 H        -9.8993444224        1.8287433296       -9.8308493702
 H        -6.9380618342        3.5544307361       -8.9265670501
 H        -5.7870662290        2.3183820399       -8.6325200476
 H        -6.8588752245        2.5910728142       -7.4104164904
 H        -5.7181082806       -2.8830499085       -5.0853420167
 H        -6.0108985721       -1.2707399118       -4.3616881449
 H        -4.6572921321       -2.4569403977       -3.9122683953
 H        -3.9707955060        0.1606717564       -4.1359189839
 H        -2.8601734240        0.5117810674       -5.4023947260
 H        -2.4457885014       -0.7086715509       -4.4350971088
 H         2.3083297134       -0.9530596531       -6.4666416411
 H         3.5053841132       -2.2511688975       -5.9783198356
 H         2.1788172978       -1.6613722990       -4.8795423998
 H         2.2407376826       -2.6206689793       -8.3701390614
 H         0.5697703894       -2.3979508552       -8.3657739284
 H         1.2560226421       -4.0145568543       -8.5060241603
 H         5.3064501164       -7.4868296789       -1.6575130863
 H         3.8306291277       -7.3455979445       -2.6594829348
 H         4.8169683233       -5.9678241058       -2.1913891791
 H         7.7216899353       -6.0081513804       -3.9445903162
 H         7.1065389592       -5.5839389937       -2.4248413853
 H         6.3693191415       -4.7993942576       -3.8329775926
 H         9.8043583715      -13.2155775860       -1.9095285037
 H         8.6940671732      -13.0359182239       -3.2239408422
 H         7.9853679780      -13.3703740967       -1.7185109981
 H         8.9382968279      -10.3892436442        0.3670259854
 H        10.2064014041      -11.7266420763        0.1385438383
 H         8.4717618896      -12.0670115217        0.3662785882
 H        14.8823267526       -5.9358487873       -3.1846354487
 H        14.5513432538       -7.5563296508       -3.5344707776
 H        14.0347288502       -7.0366677029       -1.9641713956
 H        12.2446254277       -4.8280756259       -2.2872332488
 H        11.0265545227       -5.1723542635       -3.5010131126
 H        12.5954511951       -4.3221656953       -3.8796504730
 H        12.1099752673      -10.9984726236       -7.5594888057
 H        13.3931907150       -9.9449635228       -8.0105505552
 H        12.6951640990      -10.9260577677       -9.2320531968
 H        12.6269637611       -8.0607765250       -9.8639471989
 H        10.9587775266       -7.6270940203      -10.1865693078
 H        11.6889022550       -9.0920078178      -10.7952295888
 Na        9.6440731669       -8.9933969918       -5.3107243385
 Na      -11.8777024962        5.1781889917      -13.8221200632
