232

 C         9.6025498109      -10.3048762565       -9.8864194111
 C         9.9318685038       -9.5504199470       -8.5445763119
 O         9.1466066573       -9.4103805524       -7.6515765859
 C        11.5796523661       -9.0570041659       -8.5893997511
 C        11.7086635360       -8.1164480256       -7.3981080222
 O        11.7224092847       -8.6999917899       -6.3280817237
 C        11.8474775703       -6.5891571899       -7.5521808192
 C        11.9493991124       -5.9272247621       -6.1704805927
 C        12.9569075820       -6.6685152249       -5.2622051710
 O        13.9259613970       -7.2070902399       -5.7399019299
 C        12.7850991645       -6.5290763390       -3.6860657962
 C        11.6812699139       -7.6382065674       -3.4127121685
 O        10.5377213954       -7.4323028592       -3.7940528283
 C        12.1428759585       -8.9217986699       -2.8570017002
 C        11.1526237536       -9.7948557293       -2.0022498093
 C        10.0200695635      -10.6347818027       -2.6508447448
 O         9.9259953909      -10.7608943338       -3.8715994945
 C         9.0128966351      -11.4027050605       -1.7895598598
 C         7.6202781000      -10.5403238221       -2.1028265798
 O         7.2228451498       -9.7921561570       -1.2699144162
 C         6.8149715822      -10.7889720961       -3.4522265573
 C         5.9446752427       -9.5614651122       -3.7658088199
 C         6.6308260078       -8.3072728168       -3.9801890686
 O         7.7547509511       -8.2194205852       -4.4546137638
 C         5.7763847249       -6.9891618614       -3.7617724529
 C         5.0398201611       -6.6273449806       -5.1055083790
 O         5.5464939788       -6.9334746803       -6.1498727271
 C         3.6138363989       -5.9320648493       -4.9903176689
 C         3.3100529033       -5.0351985247       -6.1379950313
 C         1.9435160463       -4.3907629518       -5.8136178673
 O         1.0846569809       -5.0024726823       -5.2077386688
 C         1.4539401759       -3.0015596702       -6.3826438013
 C        -0.0559703026       -2.7095129504       -5.8341776709
 O        -0.3169634532       -1.7224754536       -5.2110529679
 C        -1.1775747060       -3.8011510525       -6.1659093065
 C        -2.5598674586       -3.4443774811       -5.5851211863
 C        -3.0750765532       -2.2750209688       -6.4468151289
 O        -2.8247261038       -2.2390951926       -7.6410821801
 C        -4.1938524772       -1.3203270054       -5.7105288166
 C        -5.1489777536       -0.5054416678       -6.6778388282
 O        -5.0843628359        0.7077064663       -6.7045384013
 C        -5.8993997990       -1.3565635038       -7.6886090193
 C        -6.1926839276       -0.4922964314       -8.9989278097
 C        -7.5568112568        0.1706479004       -8.9537357043
 O        -8.4706479173       -0.3771164490       -8.4165523686
 C        -7.7080081728        1.6799138735       -9.4077241124
 C        -7.3106371282        1.8204085874      -10.8695735479
 O        -6.4188905154        1.1047169726      -11.3431989893
 C        -8.2733794252        2.6974725867      -11.5653805859
 C        -7.6659906671        3.0131148948      -12.9270132979
 C        -8.6060775626        3.9396423277      -13.7789603192
 O        -9.6045870827        4.4862845031      -13.2688899337
 C        -8.1194859628        4.2800218392      -15.2237390999
 C        -9.3928809758        3.8113541330      -16.0584864869
 O       -10.2346788220        4.6527356630      -16.3492156123
 C        -9.4390303021        2.3388302343      -16.6328300174
 C       -10.7513155857        1.7098891732      -16.5280701639
 C       -11.3503225984        1.7403262661      -15.1074255285
 O       -10.7108402741        2.2321884184      -14.1857369939
 C       -12.9128679377        1.2888048869      -14.9364291552
 C       -13.4662127423        2.0859547896      -13.7836522600
 O       -13.2549014165        3.2858283895      -13.7669198044
 C       -14.1948901320        1.4603077417      -12.6342465613
 C       -14.6320655816        2.5269379580      -11.6148951232
 C       -15.6409057249        3.5599724384      -12.0311384576
 O       -16.3690351315        3.3645076967      -13.0139148062
 C       -15.5212749714        4.9514741359      -11.3154604871
 C       -14.4255233054        5.7283343106      -12.0958214038
 O       -13.2470295138        5.5129392509      -11.7981153748
 C       -14.7408443192        6.6955425294      -13.2672332304
 C       -14.8397264031        6.0206604980      -14.6265784333
 C       -13.8647722403        6.5096562237      -15.7032909160
 O       -12.7125345141        6.4940759693      -15.4420661510
 C       -14.4851361165        7.2131182788      -17.0934852384
 C       -15.2796427752        6.2223748100      -17.9702454619
 O       -15.4058159124        5.0778992865      -17.7007601041
 C       -15.9867938077        6.8107196006      -19.1686811377
 C       -16.5476440295        5.7432990468      -20.0945598845
 C       -15.3822796560        4.9532983554      -20.6551281104
 O       -14.2501752460        5.4083718711      -20.6568267646
 C       -15.4041406030        3.3932284527      -21.2294185570
 C       -16.7498895057        2.6338978698      -20.5486348684
 O       -17.7777948963        3.1596537009      -20.2682914673
 C       -16.5999927722        1.1913452682      -20.5816408642
 C       -15.5491479933        3.1083018393      -22.7053010119
 C       -13.9954662364        2.8235348118      -20.6552739233
 C       -15.3103467484        8.3672092617      -16.5532342380
 C       -13.1966785697        7.7812061720      -17.9191605424
 C       -16.8892837374        5.6384841564      -11.3353840690
 C       -15.0142922288        4.8608235874       -9.8426795466
 C       -13.6314484859        1.7894757234      -16.2085584126
 C       -13.0053620316       -0.2638519117      -14.8192917488
 C        -7.9999633639        5.8371216937      -15.3457548851
 C        -6.8334444821        3.6278385832      -15.6876125224
 C        -9.1593678560        2.1200128386       -8.9830573989
 C        -6.6352523048        2.4631219715       -8.6112518688
 C        -5.1449396690       -2.0890271820       -4.7817223452
 C        -3.2964963136       -0.3234479351       -4.9529218451
 C         2.4695559669       -1.9162130791       -5.9984810255
 C         1.2418044741       -3.1198610472       -7.8922526746
 C         4.9288984387       -7.0779612308       -2.4949695836
 C         6.8940236861       -5.8097257713       -3.7377363755
 C         8.8873734821      -12.8334945439       -2.2979957086
 C         9.2553610598      -11.3523299699       -0.2911093407
 C        14.1379403475       -6.7536358350       -2.9568465483
 C        12.2812448513       -5.0393148475       -3.3604925825
 C        12.3889799862      -10.2908379873       -8.3669668901
 C        11.7609532240       -8.3438437294       -9.9193264544
 H         9.7686843745       -9.7259293928      -10.7613295770
 H         8.5538070412      -10.4093480449       -9.8753528178
 H        10.1173112447      -11.2775837481       -9.9198079156
 H        10.8969351950       -6.2612773878       -8.0517364651
 H        12.6850113040       -6.3007282519       -8.1669843056
 H        10.9181547332       -5.9614004818       -5.7449363103
 H        12.3120945378       -4.9335985067       -6.3910813684
 H        13.2123206959       -8.6909294088       -2.5082618515
 H        12.4272269786       -9.2899754591       -3.8629698213
 H        10.5899907609       -9.0654736866       -1.4174948092
 H        11.6192638412      -10.4639565514       -1.2899336709
 H         6.3409707740      -11.8294440050       -3.3286044800
 H         7.4043152439      -11.0477026624       -4.3689664366
 H         5.1852086036       -9.5102568436       -2.9770241490
 H         5.3788001835       -9.8404503302       -4.6757764787
 H         3.6514904919       -5.3956813227       -4.0598299792
 H         2.8499528787       -6.6925538598       -4.8830118130
 H         3.2796937489       -5.6038760259       -7.0262323123
 H         3.9952572090       -4.1930681133       -6.1420709231
 H        -0.9519556528       -4.8643465522       -5.8296553683
 H        -1.2451950256       -3.5899073013       -7.2854475560
 H        -2.5602708960       -3.0951090573       -4.5349264121
 H        -3.3214910107       -4.2171405661       -5.6909164059
 H        -6.7792812184       -1.8144570136       -7.3355145409
 H        -5.2294169360       -2.2694037478       -7.9459607175
 H        -6.0609219936       -1.1659018387       -9.8482225083
 H        -5.4210251388        0.2846254945       -9.1898513898
 H        -8.4512924332        3.6509127942      -11.0055054502
 H        -9.3299765893        2.1773576482      -11.7425479089
 H        -7.5507260155        2.0839772723      -13.4886201380
 H        -6.7402631981        3.5909653511      -12.8445071618
 H        -8.6956687408        1.7556561857      -16.0913626724
 H        -9.2283471266        2.5408169939      -17.6864198879
 H       -10.7639255878        0.7428516691      -16.9647223061
 H       -11.3664248925        2.2991654827      -17.1972557865
 H       -13.4452857847        0.7941595986      -12.1567379684
 H       -15.0367632120        0.7971813378      -13.1357612865
 H       -13.7387431708        3.1276498346      -11.3819526442
 H       -14.8267054568        2.1118384291      -10.7010282618
 H       -13.9990011797        7.4695571094      -13.2910140299
 H       -15.6348505229        7.2644043253      -13.1716002232
 H       -15.8490938873        5.9085459363      -14.9877981982
 H       -14.4287956434        5.0153066698      -14.4771740999
 H       -15.2219881703        7.4398803256      -19.6584605121
 H       -16.7506972747        7.5391669534      -18.9449787387
 H       -17.0559112099        6.1777022192      -20.9563511064
 H       -17.3367254616        5.1976420368      -19.6715708857
 H       -15.7100750689        0.7203984689      -20.8869864134
 H       -17.4507504619        0.7514372851      -21.0988834694
 H       -16.7212693204        0.6405019005      -19.6359675346
 H       -14.7940140624        3.4552182989      -23.3746422211
 H       -16.4619944588        3.6150182193      -23.0531324852
 H       -15.7104799675        2.0974600039      -23.0778611894
 H       -13.7299008045        1.8437991732      -20.8973142721
 H       -14.0747052000        3.0725570198      -19.5939979176
 H       -13.2835462642        3.4320778143      -21.1190317404
 H       -16.2424542197        7.9698891073      -16.2299657302
 H       -15.6292427771        9.1195042226      -17.2382796361
 H       -14.7607133946        8.7837799251      -15.7075828486
 H       -13.2897620722        7.3916615315      -18.9364399353
 H       -12.2790963912        7.3764367789      -17.4042244973
 H       -13.0303548628        8.8592981874      -18.0338336094
 H       -17.5233618083        5.1440622922      -10.6443994309
 H       -17.1836389751        5.5570156096      -12.3872153749
 H       -16.6860215388        6.6473805900      -11.1185482475
 H       -15.3984681985        5.6970058054       -9.3316856764
 H       -13.9246518517        4.9093301930       -9.6539459822
 H       -15.3381668394        3.8995295098       -9.5158681846
 H       -14.7134523503        2.2138803489      -15.9992259373
 H       -13.8451277905        1.0366032669      -16.8733740234
 H       -13.2755810689        2.6998982059      -16.6648491925
 H       -12.5241225135       -0.6591910028      -15.7006516444
 H       -14.0725014201       -0.4826169792      -14.8989107397
 H       -12.6048357175       -0.6722402025      -13.8736317884
 H        -8.6144840424        6.3625180289      -14.5623000524
 H        -8.2021534416        6.0975235249      -16.3216596323
 H        -6.9108421951        6.1170549571      -15.1260468015
 H        -6.0415230009        4.2480736140      -15.3713690300
 H        -6.6635620961        3.5122480196      -16.7998835653
 H        -6.7559888530        2.6100005192      -15.2522744840
 H        -9.1709745424        3.1111313364       -9.1032980738
 H        -9.3296955769        1.9835635312       -7.9172924448
 H        -9.9557164229        1.7974877608       -9.5989509587
 H        -6.8547434473        3.4852460544       -8.6717464141
 H        -5.6258913490        2.2495976081       -8.9658453194
 H        -6.5453293694        2.2057651274       -7.5614272648
 H        -5.9317419012       -2.6275486602       -5.2395901154
 H        -5.6327402985       -1.3294443715       -4.2027285492
 H        -4.6432979274       -2.8482295514       -4.1814822400
 H        -3.9114719546        0.1143353347       -4.2558133782
 H        -2.7791961795        0.4546920908       -5.4985743340
 H        -2.3550996311       -0.8761064499       -4.5181550977
 H         2.4129388931       -0.9353688899       -6.6110236356
 H         3.5286644969       -2.2637128852       -5.9487485651
 H         2.1299046503       -1.6065923599       -5.0061592395
 H         2.1147450791       -2.9261045669       -8.4340379880
 H         0.5420424575       -2.3088273065       -8.1694441562
 H         0.7482845099       -4.0165267268       -8.1833990483
 H         5.4792066964       -7.3110493420       -1.5213281498
 H         4.1271869210       -7.7842543217       -2.6601828921
 H         4.4610171190       -6.1374938148       -2.3711183967
 H         7.5294717502       -5.9345119999       -4.5756471983
 H         7.5657385723       -5.8046347941       -2.9460359402
 H         6.4215820006       -4.8267037978       -3.7591124344
 H         9.8586762985      -13.4083736161       -2.1851239393
 H         8.5891529269      -12.8641666956       -3.3460070703
 H         8.0947995761      -13.3315716062       -1.8163792670
 H         8.5647914852      -10.6163099618        0.0969605854
 H        10.3183654626      -11.1047119670       -0.0912611300
 H         9.0756383602      -12.2549859570        0.2962445873
 H        14.6945394092       -5.8214054456       -3.0775892739
 H        14.7513923971       -7.5547472258       -3.2968553931
 H        13.8694586261       -6.9261698033       -1.9477704196
 H        12.7138528028       -4.5834373384       -2.4785928599
 H        11.1793444597       -5.0214991389       -3.2332236820
 H        12.6233324033       -4.4121835608       -4.1553682617
 H        11.7568012355      -11.0158910532       -7.9491001158
 H        13.2551586696      -10.1904068596       -7.7209592348
 H        12.7552908613      -10.6527029207       -9.2679457021
 H        12.8061900977       -8.4270052773      -10.2371211646
 H        11.3299226631       -7.3777867452       -9.9356452643
 H        11.2957576226       -8.9929931553      -10.5860280037
 Na        9.7043331106       -9.0222342032       -5.2913624403
 Na      -11.8316601098        5.1296231036      -13.6831101955
