232

 C         9.5552291252      -10.3775604367       -9.7829325755
 C         9.9500661207       -9.4441286661       -8.7030733164
 O         9.2726750339       -9.1923212032       -7.7111258694
 C        11.4575321628       -9.0133114404       -8.7088667710
 C        11.6141772718       -8.1059698082       -7.3799209138
 O        11.5581759054       -8.6548657024       -6.2749421663
 C        12.0107048214       -6.6728848349       -7.5339453473
 C        11.9367985485       -5.8865782977       -6.1616731601
 C        13.0002770933       -6.6604636923       -5.2831408141
 O        13.8871253040       -7.3393674723       -5.8463646642
 C        12.7678845730       -6.5450067959       -3.7313041738
 C        11.6210411541       -7.6135970230       -3.3897398599
 O        10.4827153757       -7.3280037803       -3.6575014340
 C        12.1032021018       -8.9747557524       -2.7388070245
 C        11.1066087237       -9.7065108328       -1.9081435004
 C        10.0395299494      -10.4843322789       -2.6950240369
 O        10.1636859863      -10.6014088901       -3.8966152290
 C         8.9290306041      -11.4027377336       -1.8422590734
 C         7.6073280442      -10.6655003498       -2.0031584521
 O         7.1786077779       -9.8177467521       -1.2650443873
 C         6.9068993804      -10.8869328936       -3.4099289997
 C         5.9745968443       -9.6969492136       -3.5819408033
 C         6.7043510980       -8.3398875205       -3.9879626598
 O         7.7975200475       -8.2876086639       -4.4112282495
 C         5.8848717390       -6.9833679085       -3.8200829125
 C         4.9851384510       -6.6918392319       -5.0984698817
 O         5.3586510346       -6.9894827539       -6.2594654631
 C         3.6831056476       -5.8350404104       -4.9061153869
 C         3.2663672737       -4.9136571409       -6.0505479465
 C         1.7916002463       -4.4255516092       -5.7584353498
 O         1.0660737788       -5.0224006962       -5.0439485359
 C         1.3374369192       -2.9719599445       -6.3781708899
 C        -0.0882495100       -2.7892231281       -5.8126743664
 O        -0.3148950246       -1.8125021239       -5.1314021639
 C        -1.1813236519       -3.7670062010       -6.2000208693
 C        -2.4886366040       -3.3316942435       -5.6651921109
 C        -3.1674053909       -2.2693577963       -6.5083408266
 O        -2.7615676194       -2.0072894221       -7.5960090384
 C        -4.1507334513       -1.2823391929       -5.7421360614
 C        -5.0416990180       -0.5729513840       -6.8422646565
 O        -5.1650753904        0.6330905310       -6.6777124834
 C        -5.9407460179       -1.3689757275       -7.8032203841
 C        -6.1768396276       -0.5493075576       -9.0728166481
 C        -7.5296162793        0.1231598671       -8.7651903911
 O        -8.5293713173       -0.5109596853       -8.4185335053
 C        -7.5934426888        1.6737340303       -9.1964375816
 C        -7.3919857386        1.6587941952      -10.7023509174
 O        -6.3932251430        1.2320608908      -11.2480786973
 C        -8.2525229956        2.6598801781      -11.5735623208
 C        -7.7445677817        2.8674961898      -13.0840794042
 C        -8.5685353150        3.9787599102      -13.7718914837
 O        -9.5021378652        4.5053794302      -13.1813728272
 C        -8.2107811844        4.3247918750      -15.2473631657
 C        -9.5050765325        3.8663420813      -16.1812345428
 O       -10.3373140102        4.6896834947      -16.4088185453
 C        -9.5791513512        2.3352046827      -16.6838460732
 C       -10.9250814892        1.6438550331      -16.5163727102
 C       -11.4744893546        1.7244584139      -15.0897378531
 O       -10.7237027263        2.0583088937      -14.2212491935
 C       -12.9803315531        1.3345654482      -14.9605169911
 C       -13.5419256201        2.0559658330      -13.7364145042
 O       -13.3206148657        3.2490094341      -13.6624594431
 C       -14.3796159922        1.3749437919      -12.5557360406
 C       -14.6263952191        2.4145775791      -11.4339071437
 C       -15.5362750230        3.5642344379      -12.0329934909
 O       -16.4209116359        3.4145690638      -12.8581027354
 C       -15.4669648238        5.0275323349      -11.3633684450
 C       -14.3216332805        5.7460304691      -12.1888465509
 O       -13.1658679879        5.4188989619      -12.0103081037
 C       -14.6985585670        6.7413478773      -13.3015041306
 C       -14.9438148262        5.9637448915      -14.6264008505
 C       -13.8846654930        6.5419860469      -15.7312037642
 O       -12.6769321787        6.4434468720      -15.4733878864
 C       -14.4093221374        7.2484835866      -16.9831177777
 C       -15.2797154015        6.2984322846      -17.9105405398
 O       -15.3432975455        5.1100323247      -17.5955159349
 C       -15.9722836082        6.8383213581      -19.2863173975
 C       -16.4560181089        5.7512831493      -20.2694957545
 C       -15.2916492549        4.9573839306      -20.7405433247
 O       -14.1725269781        5.4484205473      -20.8089383063
 C       -15.4291557891        3.4516462766      -21.0274834208
 C       -16.6591090498        2.6366235075      -20.5305752578
 O       -17.7354102156        3.2598259298      -20.2556876321
 C       -16.5515593989        1.1671636684      -20.5068777068
 C       -15.5414549718        3.2452442489      -22.5385974079
 C       -14.1780754385        2.7509488091      -20.5354701575
 C       -15.4014461199        8.4275128958      -16.5519040365
 C       -13.2759426127        7.7083946690      -17.9031280365
 C       -16.8759008883        5.6812051864      -11.4271831678
 C       -14.9997533001        4.8766193717       -9.8366227308
 C       -13.8321289983        1.9270859944      -16.1102152261
 C       -12.9609087288       -0.2540494315      -15.0015190582
 C        -8.0418311093        5.8481712489      -15.3989051803
 C        -7.0245707647        3.5736164839      -15.7914687663
 C        -8.9905300415        2.1524305507       -8.8676558770
 C        -6.4557012868        2.4729228148       -8.5825731516
 C        -5.0016250615       -2.1953710966       -4.8612593052
 C        -3.2642938791       -0.3140933407       -4.9741989433
 C         2.3619504665       -1.8754509953       -6.0603744797
 C         1.2346141080       -3.1233551462       -7.9219054536
 C         5.0908683784       -7.0416059480       -2.5355214090
 C         6.9193751524       -5.7961153180       -3.8415227504
 C         8.9307764019      -12.8645815716       -2.4770245231
 C         9.3153079612      -11.3358083507       -0.3943109420
 C        14.0455901296       -6.7829837521       -2.9142133635
 C        12.3469400177       -5.0577720990       -3.3985979157
 C        12.2920072238      -10.3135509488       -8.4925617400
 C        12.0454033552       -8.2103616352       -9.9472154074
 H         9.8023651400       -9.9223503576      -10.7552100151
 H         8.4903109269      -10.4846960600       -9.7561891634
 H        10.1588350579      -11.3016900240       -9.6226622295
 H        11.3148616302       -6.3282490475       -8.2636167700
 H        12.9491914975       -6.6150545049       -7.9233529597
 H        10.9335427702       -5.9064801460       -5.8121677876
 H        12.2975604788       -4.8980909867       -6.3893314678
 H        13.0266088414       -8.6912566611       -2.2870883560
 H        12.4506953596       -9.5792037468       -3.5861699272
 H        10.6419775183       -9.0595403137       -1.1699467937
 H        11.6095212720      -10.5219292962       -1.4174664897
 H         6.5858566694      -11.9486912634       -3.4988307200
 H         7.5593900647      -10.8614828249       -4.3050396135
 H         5.3999179835       -9.6509951056       -2.7007729961
 H         5.2504756740      -10.0444294347       -4.3759261065
 H         3.8805223373       -5.3204446118       -4.0037288851
 H         2.8430629424       -6.4783813755       -4.7352124063
 H         3.2146309760       -5.5484427834       -6.9333801620
 H         3.9179632129       -3.9993252365       -6.1611356014
 H        -1.1080701962       -4.8114255980       -5.8261537836
 H        -1.1301132891       -3.5308196680       -7.3386134472
 H        -2.3649804407       -2.8934216156       -4.7296439100
 H        -3.1593222786       -4.1933680751       -5.5215821869
 H        -6.8594246648       -1.5345536492       -7.3583625812
 H        -5.6302219345       -2.3617736614       -8.0268651399
 H        -6.0923427560       -1.2242455993       -9.9097500529
 H        -5.4226935057        0.2385542280       -9.3403739641
 H        -8.0864893062        3.6629170986      -11.0838131422
 H        -9.3128465454        2.5796618429      -11.7107298163
 H        -7.9538767153        2.0004473066      -13.7161198272
 H        -6.7404023561        3.2128076157      -13.2628878915
 H        -8.9684781273        1.8247712057      -15.9965650222
 H        -9.2769079941        2.3006406609      -17.6492045324
 H       -10.6734209006        0.5926075880      -16.6238280744
 H       -11.5898567696        1.8694619273      -17.3348943173
 H       -13.7693428745        0.4862943969      -12.2244694049
 H       -15.3087315474        1.0210818721      -12.9096004918
 H       -13.7535490041        2.7660167997      -10.9989913089
 H       -15.1271448508        1.8733537558      -10.5832171073
 H       -13.8922361609        7.4680269645      -13.4287657487
 H       -15.5305712939        7.4558151518      -13.1253152811
 H       -15.9587907416        6.0654032896      -14.9768923805
 H       -14.7718854046        4.8936207815      -14.4085652714
 H       -15.3002136205        7.5441841583      -19.6969110948
 H       -16.8285747337        7.4990708415      -19.0216134759
 H       -17.1844196272        6.0105222177      -20.9956560148
 H       -17.0530698029        5.0886726187      -19.6596969891
 H       -15.6822712675        0.8119697844      -21.0601330681
 H       -17.3681124320        0.4708652465      -20.6729292448
 H       -16.2158379287        0.7343436356      -19.5406242482
 H       -14.7186238158        3.7695759756      -23.1437265873
 H       -16.4493999887        3.5862657620      -23.0173636658
 H       -15.4367956714        2.2323470076      -22.9075119060
 H       -14.0396289274        1.7498003775      -20.9904089902
 H       -14.2174870149        2.7368944183      -19.5160215928
 H       -13.3829457882        3.2850872514      -20.9034742009
 H       -16.2123353403        8.0356078260      -16.0074791112
 H       -15.8691593879        8.8959140835      -17.4214124166
 H       -14.9038900713        9.1860147261      -15.9433966542
 H       -13.4904994546        7.1436197171      -18.7815168879
 H       -12.2325262996        7.6851646453      -17.5731262164
 H       -13.4545431504        8.7360137066      -18.3575294555
 H       -17.4986238646        4.9004477861      -10.9861341080
 H       -17.0764213318        5.7079050731      -12.4964040602
 H       -16.9136146002        6.6155299000      -10.9723248903
 H       -15.2838669455        5.7258003814       -9.1895316420
 H       -13.9248306550        4.9051072827       -9.8873544002
 H       -15.1954283874        3.9168290998       -9.4825249164
 H       -14.9130921370        1.9901275998      -15.9317672372
 H       -13.7786525004        1.3319208362      -16.9950149467
 H       -13.6242821282        2.9977169156      -16.3383354775
 H       -12.5451683612       -0.5407731974      -15.9763313800
 H       -13.9595422851       -0.6601071869      -14.9305310873
 H       -12.2736302554       -0.5870124109      -14.1657274550
 H        -8.7289843859        6.3158756330      -14.6815282176
 H        -8.2244216466        6.1446876109      -16.4405087710
 H        -7.0781236085        6.1081235722      -15.1421667480
 H        -6.1493191601        3.9588071160      -15.1391669437
 H        -6.7317502987        3.7581932403      -16.8022748564
 H        -7.1459818759        2.5183491678      -15.6771523703
 H        -9.1673936818        3.2416040566       -9.1664969149
 H        -9.1967597334        2.0347815740       -7.8501975251
 H        -9.6630209081        1.5838724301       -9.4531464233
 H        -6.8146042975        3.5814094422       -8.4400478049
 H        -5.4833269961        2.3917213516       -9.0598668414
 H        -6.2854101600        2.1730026353       -7.5961444057
 H        -5.8709403594       -2.6019277911       -5.3413246948
 H        -5.4062745255       -1.5985127632       -4.1209147247
 H        -4.4665203903       -3.0407569099       -4.4318486636
 H        -3.9677204421        0.3198150671       -4.3231918179
 H        -2.6200794237        0.3442839070       -5.5719017235
 H        -2.4401871488       -0.8403403750       -4.4337583930
 H         2.1975488421       -1.0476615778       -6.7420031354
 H         3.3568978778       -2.2266382407       -6.2124398393
 H         2.2126982126       -1.3974634589       -5.0487652412
 H         2.2268359809       -3.4367735566       -8.3779725879
 H         0.9006552877       -2.2866484391       -8.4778291641
 H         0.4291180483       -3.8812975484       -8.0447963630
 H         5.6676756037       -7.2351056105       -1.6328178915
 H         4.4693774395       -7.9052311991       -2.7550924496
 H         4.3180677045       -6.2211982103       -2.3353751978
 H         7.2798976796       -5.4397248795       -4.8154745452
 H         7.8190220440       -5.9998423434       -3.3208551671
 H         6.4832875182       -4.9747407116       -3.3361267872
 H         9.8044740229      -13.4767547599       -2.3068214272
 H         8.6265608008      -12.8538500243       -3.5215605345
 H         8.0376380137      -13.3709662518       -1.9806473956
 H         8.5159384537      -10.9008064255        0.1800596416
 H        10.2750628369      -10.9185044926       -0.2264229802
 H         9.4540688430      -12.3090141941        0.0056569235
 H        14.6947987610       -5.9609033324       -3.2257912632
 H        14.5630769813       -7.7405924400       -3.1947529397
 H        13.8307774410       -6.7771195996       -1.8945190148
 H        12.7782713281       -4.7027734608       -2.4409298288
 H        11.2944106670       -4.9807457513       -3.2761407157
 H        12.8025584354       -4.3759343690       -4.1369637518
 H        11.7152981163      -11.1790623984       -8.1666889837
 H        13.1126482938      -10.1583183352       -7.8340804815
 H        12.7545195264      -10.5720334561       -9.4225939485
 H        13.1762428041       -8.2769901287       -9.8929892962
 H        11.5902802275       -7.2006237384       -9.9489404510
 H        11.8224732810       -8.8395088812      -10.8399224365
 Na        9.7184818814       -9.0662900493       -5.3216126622
 Na      -11.6833306733        5.0838153934      -13.6398169255
