232

 C         9.5155388290      -10.1576404757       -9.9819903598
 C         9.9999412345       -9.2603135144       -8.8430435047
 O         9.2604035414       -8.7563089169       -8.0312636914
 C        11.5799976890       -8.9581837192       -8.8078175775
 C        11.7317758344       -8.1050271293       -7.5825566379
 O        11.5826511731       -8.6086224314       -6.4511227813
 C        12.2469697962       -6.6382951771       -7.6293223687
 C        12.1564536726       -5.9498406463       -6.2818605822
 C        13.1074541837       -6.6829726389       -5.1982987975
 O        14.0372023719       -7.4397782538       -5.5947384616
 C        12.9218417165       -6.4541673118       -3.6782776316
 C        11.7837155068       -7.5595857206       -3.2653278454
 O        10.6212405405       -7.2681526869       -3.3885924548
 C        12.0502304951       -8.8458203266       -2.4958592763
 C        10.8629977279       -9.4767974227       -1.7444322018
 C        10.1755797719      -10.4944827071       -2.5890896431
 O        10.4303819042      -10.5677698243       -3.7775805679
 C         9.0266563802      -11.5293805538       -1.9068642120
 C         7.6789945574      -10.7749488539       -1.9859561759
 O         7.2616331542      -10.0345632934       -1.1576214705
 C         6.9529222901      -10.8892942285       -3.4457695152
 C         5.9603841287       -9.6998055858       -3.7587328354
 C         6.6112117597       -8.3954565439       -4.1348551360
 O         7.7055281220       -8.3429368642       -4.5813337321
 C         5.9961339139       -6.9188675860       -3.8779456946
 C         4.9015320472       -6.6174729130       -4.9484649799
 O         4.8076766646       -7.2833644491       -5.9876964866
 C         3.9288774361       -5.4953147861       -4.6781408277
 C         3.3170773172       -4.8892127170       -5.9124293411
 C         1.9408289250       -4.3242358649       -5.5995755757
 O         1.2117662334       -4.8521047692       -4.8334609884
 C         1.4627128640       -3.1082917614       -6.4550135329
 C        -0.1339321656       -2.9136258862       -5.9460257547
 O        -0.3347939557       -2.1140003104       -5.0803268815
 C        -1.2403851580       -3.9147800309       -6.4595346007
 C        -2.6679289459       -3.6243533560       -5.9272877661
 C        -3.0408361286       -2.1927940931       -6.3935887127
 O        -2.6630751652       -1.6792825690       -7.4142951680
 C        -4.1313806996       -1.3196665247       -5.6990187504
 C        -5.0615156043       -0.6120667938       -6.8873177524
 O        -5.4685299970        0.5358104458       -6.7996001335
 C        -5.7353252974       -1.4418569492       -7.9380671140
 C        -6.2928834990       -0.6472068747       -9.1245726428
 C        -7.4736263925        0.1762892123       -8.7725539672
 O        -8.5004872995       -0.3816178438       -8.4015005422
 C        -7.4538686758        1.6948757277       -9.1219518848
 C        -7.3150343047        1.8226246546      -10.6906496664
 O        -6.3643799157        1.3338474143      -11.2740285581
 C        -8.3625450822        2.6978681092      -11.5382902629
 C        -8.1297704779        2.6559474016      -13.1134487672
 C        -8.6817441771        3.8717398202      -13.8004189831
 O        -9.3849763485        4.6572426422      -13.1916877970
 C        -8.3770033056        4.2398708646      -15.3923363633
 C        -9.6881977515        3.5870222016      -16.0560575901
 O       -10.6670210377        4.3264993587      -16.0910013431
 C        -9.8690788547        2.1879710552      -16.7758538566
 C       -11.3591138020        1.9060317053      -16.6868566038
 C       -11.7963130268        1.7879168449      -15.2771995673
 O       -10.9784375127        1.9097052686      -14.3882737910
 C       -13.3170958010        1.4501960164      -14.9849657954
 C       -13.5643757902        2.0559912546      -13.5876902618
 O       -13.1739759742        3.1642129955      -13.3763358990
 C       -14.4630260765        1.3446801999      -12.5820154889
 C       -14.8615758632        2.2883527942      -11.4280855959
 C       -15.6083992740        3.5305930853      -11.8930417788
 O       -16.4571304557        3.2930982496      -12.7610561157
 C       -15.2942483159        4.9708799055      -11.3549414326
 C       -14.1813189902        5.6176038545      -12.2096664889
 O       -12.9819844822        5.4437373432      -12.0936027119
 C       -14.5472902005        6.6182560997      -13.2714006058
 C       -14.9109594510        6.1444100285      -14.6313463223
 C       -13.9382779879        6.4230357608      -15.7029583345
 O       -12.7773900215        6.2033583498      -15.5853605942
 C       -14.4251395717        7.3960460528      -16.9994001195
 C       -15.2477626057        6.3933168142      -17.8745512219
 O       -15.3897317397        5.2339395824      -17.4588676966
 C       -15.9828415826        6.8428712565      -19.1706682521
 C       -16.3593832617        5.7550484007      -20.1400834684
 C       -15.1989639008        4.9695579616      -20.5963893940
 O       -14.1150962060        5.4372846604      -20.9034444480
 C       -15.2745911166        3.4008784222      -20.9026391464
 C       -16.6271517532        2.6844267684      -20.3334237982
 O       -17.6519175748        3.3983170573      -20.3111920005
 C       -16.6710390611        1.2356905828      -20.1328728702
 C       -15.2444102841        3.3016396632      -22.4486231564
 C       -14.0030729907        2.7176926198      -20.4936375669
 C       -15.2662521459        8.5561027576      -16.5424262262
 C       -13.1790053411        7.8110092884      -17.7369238002
 C       -16.6580150926        5.7300948732      -11.4759742223
 C       -14.7952111821        5.1052300007       -9.9471487823
 C       -14.3568639508        2.0079951633      -16.0842476025
 C       -13.5123257661       -0.1080054623      -14.8748974646
 C        -8.4360932640        5.8203001694      -15.3855061918
 C        -6.9936510369        3.7172678625      -15.9731325764
 C        -8.7940363768        2.2855397233       -8.6833163220
 C        -6.2410556245        2.4775634691       -8.5116744197
 C        -5.0328401363       -2.1618185006       -4.7058894296
 C        -3.5084825279       -0.1766978806       -4.8253967609
 C         2.2975857819       -1.9126850601       -6.0324952357
 C         1.5599666025       -3.5047305724       -7.8816913007
 C         5.2107478405       -6.9357408014       -2.4908130703
 C         7.0513675792       -5.9016271009       -4.1068036194
 C         9.0707516372      -12.8448481318       -2.7468885061
 C         9.2976336374      -11.8040410565       -0.4121810339
 C        14.2731597775       -6.5677448400       -2.9613293903
 C        12.3645129628       -4.9947690899       -3.2358447298
 C        12.4016394376      -10.3186882326       -8.5630832423
 C        11.9357231825       -8.4382905207      -10.2647463736
 H         9.9756184808       -9.8613048866      -10.9146002893
 H         8.4881907260      -10.1027747664      -10.0889668287
 H        10.0126823117      -11.1235799877       -9.7708811193
 H        11.6100097430       -6.0243845230       -8.4104684510
 H        13.2911782739       -6.5971798941       -8.0229636463
 H        11.0293840646       -5.9087127147       -6.0870968554
 H        12.4635026149       -4.8952077786       -6.4621091423
 H        13.0373062315       -8.6690345656       -1.9395323334
 H        12.3050097560       -9.4801688703       -3.3945948736
 H         9.9578047174       -8.8355137683       -1.6270310298
 H        11.2072842643       -9.8360037529       -0.7584825173
 H         6.4492117506      -11.9073073884       -3.6690588776
 H         7.7850712570      -10.7938556172       -4.1639431874
 H         5.2109034937       -9.7662972020       -2.9856892350
 H         5.4317182066       -9.9948676334       -4.7086215884
 H         4.3942950952       -4.8155280354       -3.9430580144
 H         3.1147728399       -6.0653155575       -4.1411732398
 H         3.0752788056       -5.5990011154       -6.6569660505
 H         4.0188048214       -4.1506454031       -6.3225887715
 H        -0.9320363569       -4.9191186750       -6.1728508468
 H        -1.3250087975       -3.5953632487       -7.5069093422
 H        -2.7771245021       -3.4832683548       -4.8375425899
 H        -3.5020346080       -4.2978555630       -6.2302157799
 H        -6.5537647305       -1.9403241642       -7.3733227688
 H        -5.0440312828       -2.3334281367       -8.3158542203
 H        -6.5850636825       -1.2676335303       -9.9507715124
 H        -5.5140037262       -0.1003719518       -9.6997692108
 H        -8.1709940555        3.7504374680      -11.2487671377
 H        -9.4615513035        2.4278673531      -11.3272809837
 H        -8.6711997144        1.8189524238      -13.6126921872
 H        -7.0486883278        2.4633522597      -13.2830844746
 H        -9.2699348783        1.4002227817      -16.1800757240
 H        -9.6112359975        2.2591254355      -17.8687556738
 H       -11.4918977485        0.9460180628      -17.1696613042
 H       -11.9311312808        2.6891323751      -17.2222406043
 H       -13.9280415314        0.4124474410      -12.2454763868
 H       -15.3340681759        0.9264550170      -13.2262524061
 H       -13.9903865333        2.5549263564      -10.8708661469
 H       -15.4609580896        1.7521427454      -10.7150579861
 H       -13.7824966558        7.3581270379      -13.2659612314
 H       -15.3639052594        7.1988596495      -12.8949365148
 H       -15.9380432923        6.3402277573      -14.9230583063
 H       -14.9061064704        5.0357073244      -14.5176247409
 H       -15.4170015533        7.5862585195      -19.7685669430
 H       -16.7692173757        7.4888310413      -18.7582009648
 H       -16.9925611286        6.1087197142      -20.9818572156
 H       -17.0220951193        5.0353950246      -19.6945548991
 H       -17.1371958760        0.6553516835      -20.8707604430
 H       -17.0899716368        0.8886243292      -19.2015588281
 H       -15.7348385311        0.7014585408      -20.1109628690
 H       -14.3537255000        3.5395852128      -23.0106025083
 H       -15.9545083719        3.9190652349      -22.9435041742
 H       -15.4893816835        2.3070033142      -22.7463612621
 H       -13.9949725280        1.6692554909      -20.9859642654
 H       -14.0392986959        2.5243951971      -19.3846628431
 H       -13.1183510436        3.2516840634      -20.8109674505
 H       -16.0599094569        8.2571395784      -15.8993301191
 H       -15.6344207324        9.1335560546      -17.4221907127
 H       -14.6975559387        9.3378583886      -15.9415133273
 H       -12.3895688492        7.1128975539      -17.6339665848
 H       -12.8531424703        8.7333571087      -17.2413259020
 H       -13.2640572892        7.9164032691      -18.8186896435
 H       -17.3496048664        5.4915198295      -10.6455305938
 H       -17.1126454738        5.4403226767      -12.4650177321
 H       -16.3423668137        6.7473239254      -11.4340076402
 H       -14.3148621096        6.0877935198       -9.7855373257
 H       -14.0701022415        4.2559091055       -9.7526547538
 H       -15.6179406240        5.0272260442       -9.2295115034
 H       -15.1204206857        1.2001301203      -16.3550389889
 H       -13.9233916624        2.3603974032      -16.9688636702
 H       -14.9367637729        2.9383611688      -15.7857272526
 H       -13.3741277354       -0.5797198633      -15.8202314413
 H       -14.4982143680       -0.3121872588      -14.5632189274
 H       -12.6854687187       -0.4196227478      -14.2146816355
 H        -9.5633803694        6.0244428177      -15.3868178089
 H        -8.0997041612        6.2067972491      -16.3317059023
 H        -7.8679233520        6.2837517061      -14.5632751918
 H        -6.0810185490        4.1377896315      -15.5287090034
 H        -7.0202088123        3.7132891484      -17.0636457687
 H        -6.9956334190        2.6550211505      -15.7786560682
 H        -8.9495455332        3.3177255322       -8.9534802628
 H        -8.9449938041        2.1751317481       -7.6103174447
 H        -9.5474117253        1.6447840317       -9.1304397969
 H        -6.0562135710        3.4665759368       -8.9433646584
 H        -5.3355469045        1.9006208171       -8.5298369945
 H        -6.4883915160        2.7580374763       -7.5564035776
 H        -5.1693613374       -3.1909596540       -5.1054492031
 H        -6.0511760271       -1.8052902940       -4.5798492813
 H        -4.5329349277       -2.1513286744       -3.6647400613
 H        -4.3198050506        0.4837993104       -4.5716772321
 H        -2.7423639297        0.3285047092       -5.3289099904
 H        -3.0398532996       -0.5998766737       -3.8876065934
 H         1.8104218364       -0.9259690114       -6.1911509753
 H         3.1807414471       -1.9371041484       -6.6484427005
 H         2.6123467386       -1.9088950455       -4.9588565677
 H         2.5691913797       -3.5132593254       -8.1906634586
 H         1.0391262045       -2.7920714162       -8.4768970011
 H         1.0324461073       -4.4110353320       -8.0685367022
 H         5.8180599593       -7.5368134176       -1.7938126494
 H         4.2842034568       -7.4181433230       -2.5512875948
 H         4.9898654664       -5.9774942517       -2.0515583493
 H         7.1279917954       -5.5337542898       -5.1563573186
 H         7.9976343047       -6.3646937262       -3.8522334314
 H         7.0454957554       -4.9401180375       -3.5673122077
 H        10.0092250221      -13.3503462952       -2.4489687322
 H         9.1449910733      -12.5708060621       -3.7858882294
 H         8.3729756989      -13.6323534271       -2.5293601681
 H         8.3324033849      -11.8482407158        0.1297076724
 H         9.9044687782      -10.9431975095       -0.0044819679
 H         9.8953591891      -12.7215704012       -0.2313196198
 H        14.9597829395       -5.7361350888       -3.2439378939
 H        14.7480346553       -7.5261689707       -3.2265160110
 H        14.0340869490       -6.5201391091       -1.9535810697
 H        11.8059267251       -5.0229098446       -2.3040138272
 H        11.6409089618       -4.6905642497       -3.9836768335
 H        13.1660785135       -4.2811667969       -3.1378856912
 H        12.5060042697      -10.4716663511       -7.4778599454
 H        13.4122647099      -10.2373054597       -9.0271184319
 H        11.9305903173      -11.2233427940       -8.9207642723
 H        12.9312241907       -8.0371396072      -10.2982760237
 H        11.2488388235       -7.6939473734      -10.4497208795
 H        11.8317261706       -9.2393364982      -10.9038162343
 Na        9.5739896496       -9.0029319582       -5.4983705526
 Na      -11.5918530768        4.8908030635      -14.2668059082
