232

 C         9.3735120081       -9.2057260638      -10.0940556252
 C        10.1382120846       -9.1407196197       -8.7419049911
 O         9.4802867424       -9.3104365378       -7.7458915274
 C        11.6980269222       -8.9081718105       -8.8574871845
 C        12.1680237531       -8.2547617997       -7.5588625665
 O        12.1865251050       -8.9104330760       -6.5571810518
 C        12.7585045427       -6.7910460179       -7.5481571887
 C        12.7221427825       -6.0390497024       -6.2339358854
 C        13.4493273801       -6.6927647549       -5.1843985097
 O        14.4540759870       -7.2949836330       -5.4152254581
 C        12.8230701519       -6.5639480631       -3.6143477700
 C        11.6884380068       -7.4729850696       -3.4062315337
 O        10.6875683700       -7.2350764455       -4.0664812319
 C        11.9240205115       -8.6384588535       -2.4354095295
 C        10.5545433263       -9.2005576192       -1.9250883787
 C        10.1440312843      -10.4723045665       -2.7369657828
 O        10.4501379425      -10.4562984057       -3.9844962292
 C         9.2605697078      -11.6407271451       -2.1690918601
 C         7.7653241703      -10.7507243954       -2.3117883793
 O         7.3963639292      -10.0501742509       -1.3713309373
 C         7.0896549707      -10.8409632240       -3.6286152828
 C         6.0388596930       -9.6637538317       -3.9075721072
 C         6.7943735806       -8.3619274163       -4.2004240677
 O         7.6716178577       -8.3783292945       -5.0621195500
 C         6.2277210859       -6.9984352815       -3.6717373603
 C         4.8790499917       -6.7545488067       -4.4906932007
 O         4.2260462097       -7.6715827696       -4.8361594048
 C         4.1989275608       -5.3060205289       -4.4967543074
 C         3.2799216861       -5.0574892926       -5.6811471755
 C         1.9398500740       -4.3623173459       -5.4285211521
 O         1.3041200038       -4.7699990511       -4.4465197853
 C         1.3348963013       -3.2887353057       -6.3508145613
 C        -0.1976762886       -3.0384269042       -5.9658823892
 O        -0.5398544687       -2.2160991653       -5.1792331996
 C        -1.2942942263       -3.9126088809       -6.7192378053
 C        -2.6804048157       -3.4917655086       -6.2082589211
 C        -3.1813654870       -1.9761358511       -6.5726383656
 O        -2.5164708082       -1.3658863266       -7.4281479640
 C        -4.4019160298       -1.3879933653       -5.7385471927
 C        -5.2570068116       -0.6313340205       -6.7493044660
 O        -5.8624077772        0.3480396567       -6.4109114086
 C        -5.5502361086       -1.3892945416       -8.0129375081
 C        -5.9271978659       -0.4640497938       -9.1735229528
 C        -7.1614941898        0.4520587071       -8.8065829136
 O        -8.0994597049       -0.0230580273       -8.2416081703
 C        -7.3392057613        1.8904634481       -9.2983352507
 C        -7.4458470750        1.8195376583      -10.8031540672
 O        -6.5158406158        1.3327763500      -11.3900340006
 C        -8.5782868028        2.5598784473      -11.6317933576
 C        -8.0967846794        2.9089724317      -13.0907870404
 C        -9.1132249329        3.6037490060      -13.8997321276
 O        -9.9365453912        4.2963586047      -13.3428370021
 C        -8.8119731474        3.7548841914      -15.5241691167
 C       -10.2014269249        3.4257199871      -16.2458379780
 O       -11.1607819996        4.1356902849      -16.1962912459
 C       -10.3198372522        2.0949966007      -16.9879877533
 C       -11.6385764180        1.3566035406      -16.7801045650
 C       -12.0188545198        1.3776821777      -15.3123493040
 O       -11.2316386610        1.5137073918      -14.3984824899
 C       -13.5232815953        1.2617448374      -15.0644143950
 C       -13.7682160742        1.9255853358      -13.6447713370
 O       -13.1805470772        3.0021829897      -13.4298024715
 C       -14.8623621774        1.4760193987      -12.6084980958
 C       -14.9791673590        2.4269365811      -11.4216492543
 C       -15.5122790845        3.7930164551      -11.8974513604
 O       -16.1342146971        3.8956712332      -12.9130716096
 C       -15.2367606158        5.1098384809      -11.1119749890
 C       -14.1407320237        5.8127236271      -11.9937827358
 O       -12.9583785330        5.5438888114      -11.9016505526
 C       -14.3976464396        6.9093848064      -13.0996554027
 C       -14.8627842022        6.3217474754      -14.5641671279
 C       -13.9378810695        6.7672909632      -15.6139035150
 O       -12.7110808891        6.5632968541      -15.5450005228
 C       -14.3704849278        7.4452017703      -16.9190811724
 C       -15.2313231869        6.5070662971      -17.8024874965
 O       -15.4302452513        5.3839630158      -17.4053406207
 C       -15.8657886839        6.9941486494      -19.1108483691
 C       -16.2520337905        5.8104616675      -20.0472306569
 C       -15.0232440399        4.8947098752      -20.3899738895
 O       -13.8890512663        5.3443184010      -20.3954079244
 C       -15.2044819752        3.3591832110      -20.8279089380
 C       -16.4810809848        2.6670556602      -20.3077879572
 O       -17.5609664117        3.1306806226      -20.6546208444
 C       -16.6646006389        1.3611557191      -19.4581871969
 C       -15.2369398114        3.6170286376      -22.3608293574
 C       -14.0291699315        2.5054871306      -20.4275328229
 C       -15.2084169375        8.7218585693      -16.5929195010
 C       -13.1056847353        7.9391236279      -17.7114797041
 C       -16.5918267928        5.8527984625      -11.0996052163
 C       -14.6256271552        4.9627061831       -9.6679147061
 C       -14.3621935541        2.1725034131      -16.0167583612
 C       -13.8608131725       -0.2552184951      -15.3292580184
 C        -8.5111959604        5.2947068075      -15.6745226656
 C        -7.6178503303        2.9699279837      -16.1460786694
 C        -8.4684605673        2.6083928721       -8.5887135733
 C        -6.0396589866        2.6554473831       -8.9107812641
 C        -5.1744264773       -2.5229264851       -4.9836675345
 C        -3.7805794292       -0.4790234601       -4.6635791872
 C         2.1926348283       -2.0486327891       -6.2247615317
 C         1.5072935205       -3.7201770695       -7.8479913241
 C         5.8655109029       -6.9600367256       -2.1547917982
 C         7.2951339625       -5.8896335516       -3.9898509869
 C         9.2994330444      -12.7789307596       -3.1241463378
 C         9.4465597219      -11.9868118834       -0.6479071288
 C        14.0763226273       -6.6828562910       -2.5694405451
 C        12.2788909891       -5.1067481578       -3.5454364669
 C        12.2491914761      -10.3696786290       -8.8969454591
 C        11.9529004501       -8.0663300080      -10.1475689962
 H         9.1574065152       -8.2100079948      -10.4561001287
 H         8.3995723587       -9.7390570860       -9.9606467533
 H         9.9883692947       -9.5982900460      -10.8357738232
 H        12.3520678244       -6.1649614811       -8.3588000840
 H        13.8536736332       -7.0546468703       -7.8249248213
 H        11.6603666189       -5.8846699199       -5.9343965686
 H        13.0602036064       -4.9567982654       -6.3389661375
 H        12.4012202528       -8.1095728420       -1.6200672710
 H        12.5852750334       -9.3965691434       -3.0287803411
 H         9.7368681363       -8.4652061057       -2.0258289937
 H        10.7156843340       -9.4684996575       -0.8828685966
 H         6.5198613971      -11.7955897708       -3.5260923880
 H         7.7736414702      -10.7450078478       -4.5203359998
 H         5.5058474056       -9.5809721681       -2.9810472581
 H         5.3546855177      -10.0387576374       -4.7148672474
 H         5.0224633873       -4.6138866097       -4.3868981856
 H         3.6417443633       -5.3097576763       -3.4966038818
 H         3.0526415056       -5.9898358737       -6.1352999003
 H         3.8955822126       -4.6048722172       -6.4645918263
 H        -1.2951951373       -4.9655435270       -6.4275348384
 H        -1.1883507371       -3.7027316235       -7.8176985328
 H        -2.8778654760       -3.7392438430       -5.1844900621
 H        -3.4234241361       -4.1504227582       -6.7531832912
 H        -6.5164993005       -2.0302664737       -7.8707999495
 H        -4.7561027035       -2.0038898911       -8.3161795414
 H        -6.1782968878       -1.1685978393       -9.9972511934
 H        -5.1034827380        0.1661930321       -9.5537222292
 H        -8.7891895698        3.6090694334      -11.1135157437
 H        -9.5300213011        2.0212252760      -11.5279922059
 H        -7.4849107148        2.1864496315      -13.6425697998
 H        -7.2848752611        3.6257568205      -12.9530887595
 H        -9.4571756890        1.4443307364      -16.7898999316
 H       -10.1865450995        2.3656032687      -18.0702066925
 H       -11.6607459476        0.3464774845      -17.1934895190
 H       -12.3526536276        2.0056597505      -17.3003737778
 H       -14.7639336703        0.3150511657      -12.3457040899
 H       -15.8674966441        1.5015106279      -13.0695084621
 H       -14.1506865212        2.6151797036      -10.7982292015
 H       -15.7698301459        1.9746139956      -10.8758423355
 H       -13.4583637244        7.3990979745      -13.1334078306
 H       -15.1398577003        7.5839596700      -12.6908241894
 H       -15.9227080907        6.5243070260      -14.6978451166
 H       -14.8635164208        5.2165164705      -14.4821024612
 H       -15.2578043264        7.7585488387      -19.5752133567
 H       -16.8264066199        7.5558797383      -18.8938272023
 H       -16.5672211908        6.3293066254      -20.9426441126
 H       -17.1787193747        5.3040408826      -19.6998160184
 H       -17.3684664570        1.7629697999      -18.7218932518
 H       -15.9302076389        0.8287979214      -18.8782405197
 H       -17.1089689159        0.4714579317      -19.8484807873
 H       -14.4592217809        4.3181705317      -22.6762024627
 H       -16.0985250788        4.0288721887      -22.8452577031
 H       -14.9583379710        2.7652476598      -22.9314194378
 H       -14.0324784009        1.4986555173      -20.8253043722
 H       -14.0826726082        2.3735025571      -19.3113483619
 H       -13.0544053397        3.1356260785      -20.5884864179
 H       -16.0004823581        8.3709072881      -15.8611941341
 H       -15.7183447927        9.1622887752      -17.4875020807
 H       -14.7133828892        9.5698735494      -16.1131445917
 H       -12.7310269979        7.1405356841      -18.3518255401
 H       -12.2409340345        8.1722522949      -17.1616722607
 H       -13.4214068677        8.7631326372      -18.3322566601
 H       -17.1615036737        5.5622389830      -10.1846579877
 H       -17.1514257244        5.5732933094      -11.9953123480
 H       -16.3645563445        6.9592744840      -11.0169583084
 H       -15.2882977142        5.2649488909       -8.8212634262
 H       -13.6286235526        5.3753417241       -9.6734042424
 H       -14.5813719581        3.8908432252       -9.3825877077
 H       -14.9492666620        2.7932648374      -15.4171845013
 H       -14.9594591570        1.5455740621      -16.8153186477
 H       -13.7356698923        2.7722816517      -16.6805098472
 H       -14.0817814419       -0.3931974318      -16.3922522534
 H       -14.7205705214       -0.5006698384      -14.7165607063
 H       -12.9892341160       -0.7974256476      -15.0073929016
 H        -9.3008086812        5.8334081495      -15.1768829803
 H        -8.5496080540        5.5843985126      -16.7880686857
 H        -7.5155006567        5.4730688801      -15.2333548280
 H        -6.7168181088        3.3744903000      -15.6136118717
 H        -7.5238006380        3.3144845181      -17.1478318780
 H        -7.5909815985        1.8982755377      -15.9546026659
 H        -8.5579917002        3.6218104416       -9.0041673260
 H        -8.2617981331        2.6466911365       -7.5259031271
 H        -9.3466534290        2.0183033762       -8.7288983108
 H        -6.0629113388        3.7313918729       -8.9411605232
 H        -5.2608774892        2.4035756611       -9.5405816431
 H        -5.8728283018        2.4555506125       -7.8579836437
 H        -5.4895833749       -3.3792019637       -5.6585638623
 H        -6.0435940152       -2.0336153197       -4.4801716861
 H        -4.6080362888       -2.8213636101       -4.0953113326
 H        -4.5555793583        0.0766030461       -4.1627401675
 H        -3.2133312756        0.2466667140       -5.2532007226
 H        -3.3427710728       -1.0472284614       -3.8996621008
 H         1.9464989360       -1.3543252535       -6.9759584568
 H         3.2539725126       -2.2567456309       -6.4001512835
 H         2.1560577384       -1.6558714259       -5.2222250855
 H         2.4493315539       -4.1992736257       -8.1139417958
 H         1.2663280694       -2.9040847028       -8.4989552640
 H         0.7926232851       -4.4947096614       -7.9841344768
 H         6.4476476400       -7.5932871346       -1.5782238977
 H         4.8393823430       -7.3303978755       -2.0343535578
 H         5.9295195455       -5.9448676701       -1.7154654775
 H         7.9241052450       -6.0735590949       -4.8692665762
 H         7.9463382183       -5.6852293870       -3.1039966719
 H         7.0192652496       -4.8604641019       -4.2750845847
 H        10.1461597232      -13.4003379066       -3.0169406166
 H         9.3058951078      -12.4768487386       -4.1719556668
 H         8.4559180499      -13.4669188017       -2.7975126751
 H        10.1340966719      -12.8544059271       -0.5073777996
 H         8.4841673661      -12.3689676494       -0.3282969122
 H         9.8430821653      -11.1114871305       -0.1210829413
 H        14.7405511477       -5.8787322488       -2.7549127217
 H        14.5546377837       -7.6482777410       -2.6244626379
 H        13.6795155215       -6.4424000316       -1.5548028063
 H        12.3554037689       -4.8882823853       -2.4944663719
 H        11.3232295185       -4.8933073881       -3.9386062525
 H        12.9804723894       -4.4569897591       -4.0713458808
 H        11.6382510004      -11.2150727030       -8.4882776373
 H        13.2336314861      -10.3803297689       -8.4320790688
 H        12.3618471320      -10.5796968756      -10.0073284626
 H        12.9484238347       -8.0870697728      -10.4228461422
 H        11.6561198209       -7.0693292625      -10.0204913421
 H        11.3213824341       -8.4806474964      -10.8971411475
 Na        9.7072482191       -8.7772790347       -5.6150892588
 Na      -11.9649609401        4.9753345260      -14.0668004474
