232

 C         9.1714389715       -8.7353714092      -10.0254319340
 C        10.0755436377       -9.0780327601       -8.8589154314
 O         9.5232072033       -9.5066310821       -7.8365647325
 C        11.7530438071       -8.8849230457       -8.9680488967
 C        12.2315294620       -8.3440063745       -7.5968332432
 O        12.1891843206       -8.8550239033       -6.4479400625
 C        13.0445417148       -7.0311191820       -7.6465660104
 C        12.7696322215       -6.2254867435       -6.3327787900
 C        13.6020474843       -6.6548599953       -5.0936280703
 O        14.6003274883       -7.2829822263       -5.1667669225
 C        12.9097413482       -6.3111402141       -3.5494969412
 C        11.8054464104       -7.3329956949       -3.4155443037
 O        10.7622184085       -7.1674415234       -4.0680264526
 C        11.8739029805       -8.6507216835       -2.5567532213
 C        10.5082019896       -9.1349315809       -2.1264567921
 C        10.1103430919      -10.3782813004       -2.9414796459
 O        10.5705424164      -10.6821783263       -3.9826979702
 C         9.1377548336      -11.5660673005       -2.3271829070
 C         7.7650795081      -10.7383931217       -2.4289109039
 O         7.4856077004      -10.0526805878       -1.4841468997
 C         6.9534475497      -10.8708330232       -3.7498401446
 C         6.0806588491       -9.6187842706       -3.8239844442
 C         6.7228825715       -8.3603892101       -4.3183097146
 O         7.7381979379       -8.3231922153       -4.9672258230
 C         6.1940936614       -6.9867428611       -3.7003383907
 C         4.6886644972       -6.6462903765       -4.2419097877
 O         4.0221930084       -7.6096704893       -4.6632266964
 C         4.1406941900       -5.2034160810       -4.3940488893
 C         3.0974589584       -5.1827690446       -5.5249454049
 C         1.8126279256       -4.4583649270       -5.2756402236
 O         1.2210450103       -4.6338443477       -4.2598143626
 C         1.3248882365       -3.4531064742       -6.3726290119
 C        -0.1343619460       -2.9664030894       -6.0936513327
 O        -0.2916358071       -2.2756534914       -5.0794646202
 C        -1.1363680470       -3.6678224864       -6.8586989586
 C        -2.5395751240       -3.5697812813       -6.2453512373
 C        -3.0489326586       -2.1435576198       -6.4569908504
 O        -2.6531889638       -1.5100639503       -7.3727587713
 C        -4.4766417564       -1.4488970672       -5.6305713422
 C        -5.2093365068       -0.6919368854       -6.7273312580
 O        -5.6724939849        0.3907701069       -6.4069320821
 C        -5.5198576109       -1.3301384154       -8.1171782902
 C        -5.9666263098       -0.1896798570       -9.1280428130
 C        -7.2272047920        0.4996534544       -8.7901803327
 O        -8.1947914685       -0.0815931776       -8.3135829457
 C        -7.2475661155        1.9834139534       -9.2757453290
 C        -7.3793567096        1.8870683098      -10.8264389397
 O        -6.5315538829        1.2110910067      -11.3903601453
 C        -8.3737913803        2.6224648692      -11.7096580703
 C        -8.0466385170        2.7166096284      -13.2343766118
 C        -9.1015536904        3.4749307150      -14.0491707572
 O       -10.0390980079        3.9334381697      -13.4267027876
 C        -8.9169346434        3.6746946262      -15.5724760925
 C       -10.2779254030        3.2062032909      -16.1932577093
 O       -11.3376026596        3.8669965944      -16.1903150230
 C       -10.3663107155        1.9725506692      -17.1396634563
 C       -11.6499801157        1.1340491937      -16.9260700275
 C       -12.0778333769        1.1537110592      -15.4460270962
 O       -11.2282858447        1.1644364422      -14.5810857569
 C       -13.5853889458        1.3889396359      -15.0226642060
 C       -13.8619487790        2.0972350032      -13.6318727842
 O       -13.4127161757        3.1700101158      -13.2949537252
 C       -14.9515214658        1.5567303257      -12.7741994793
 C       -15.1764328359        2.4835524383      -11.5641282736
 C       -15.4888792391        3.8999868901      -12.0701741546
 O       -16.0257245362        4.0225249878      -13.1566473978
 C       -15.1811819942        5.1187887655      -11.1530401288
 C       -14.1316229500        5.8790489895      -11.9883485045
 O       -12.9409958344        5.5937203070      -11.9512513551
 C       -14.6123567412        6.8949623067      -13.0416929213
 C       -14.8656462820        6.4032622996      -14.4273215309
 C       -13.9637085400        7.0295226953      -15.5616817952
 O       -12.7881129884        6.9910059855      -15.2379181317
 C       -14.4851248412        7.5563336380      -16.8302269131
 C       -15.2279570601        6.4479558353      -17.6512914247
 O       -15.4016706708        5.2813199047      -17.2764052198
 C       -15.8144616599        6.8242858037      -19.0500834222
 C       -16.1082485910        5.5596937712      -19.8694508467
 C       -14.8924981809        4.8261595620      -20.1141668599
 O       -13.7617871904        5.2519646854      -19.9324740197
 C       -15.1572404609        3.4005894413      -20.7644783091
 C       -16.5517605724        2.7958687518      -20.3590974862
 O       -17.5649459544        3.3545836351      -20.8319287574
 C       -16.5316557559        1.7942812802      -19.2781368044
 C       -15.3682038193        3.4557407653      -22.2580575244
 C       -13.9153612163        2.5995745993      -20.5403586455
 C       -15.2912983290        8.8159834703      -16.4755588234
 C       -13.3639016417        7.8179622555      -17.8394699702
 C       -16.5018049815        6.0562130389      -10.9355251669
 C       -14.6374726630        4.8549581157       -9.7450954584
 C       -14.4253161687        2.2442170371      -16.0686963090
 C       -14.2586403961       -0.0665185780      -14.8977679544
 C        -8.7939517845        5.1853096352      -15.8281257685
 C        -7.7011456494        2.7876464703      -16.1487335098
 C        -8.3425454288        2.7599588074       -8.5987226537
 C        -5.9116657319        2.7698836601       -8.8878775332
 C        -5.3888899213       -2.6864208760       -5.1632165068
 C        -3.8330031152       -0.4955570272       -4.5388350288
 C         2.1845430473       -2.1301587437       -6.1697934764
 C         1.5938992871       -4.0713192062       -7.8027465062
 C         6.0191977624       -7.0862321132       -2.0748048673
 C         7.1464961972       -5.8578687080       -4.0665526341
 C         9.2397072379      -12.8274175479       -3.2266320907
 C         9.4701315567      -11.9422716665       -0.9121127139
 C        14.0726746510       -6.5798254718       -2.6453817370
 C        12.4543807173       -4.8400289025       -3.4178955970
 C        12.4811002724      -10.3083468696       -9.1572271677
 C        12.1531792644       -8.0790263132      -10.1710337679
 H         9.2901185255       -7.6986315280      -10.3705695916
 H         8.1614428936       -8.9527069460       -9.8243696703
 H         9.4903181298       -9.3831691294      -10.9130197704
 H        12.6425975247       -6.3983469802       -8.4284129151
 H        14.0168735207       -7.2564586014       -7.8510114496
 H        11.7003661130       -6.2770288594       -6.0981181278
 H        12.8737840752       -5.1833784943       -6.4901260303
 H        12.5323693210       -8.3929063152       -1.7147942445
 H        12.1558389290       -9.3605415974       -3.2369878063
 H         9.7620626505       -8.3742152539       -2.2578598095
 H        10.4887783817       -9.4923067925       -1.0945663984
 H         6.2225274365      -11.6799431490       -3.7343771593
 H         7.5791938337      -10.7848751699       -4.6043282179
 H         5.6612836655       -9.5616538767       -2.8007103545
 H         5.2783680043       -9.9010594697       -4.4951798656
 H         5.0269551807       -4.5970649890       -4.6148802284
 H         3.7922342340       -4.9260163800       -3.4563224131
 H         2.8860509147       -6.1743462278       -5.9889049782
 H         3.6575240704       -4.7804885100       -6.3556075395
 H        -0.8855093142       -4.7588399064       -6.7610231137
 H        -1.0120973055       -3.2472458179       -7.8836722297
 H        -2.5469935013       -3.7968748719       -5.1536071561
 H        -3.2633618261       -4.2216104465       -6.6702288416
 H        -6.3290640420       -1.9025398102       -7.8605852459
 H        -4.7106947891       -1.8936213572       -8.6546682132
 H        -6.1834688334       -0.7461674501      -10.0492751321
 H        -5.1609131620        0.5436986354       -9.2909585305
 H        -8.3866070684        3.5837586996      -11.3432354144
 H        -9.3932464686        2.2722488557      -11.5358490036
 H        -7.7153336439        1.7847129647      -13.6602335345
 H        -7.0834038018        3.2190610702      -13.3946624088
 H        -9.4443947198        1.3381156203      -17.2747450848
 H       -10.4065274487        2.3939668818      -18.1114341065
 H       -11.4253713119        0.1268717335      -17.2329623702
 H       -12.4346340580        1.5178235857      -17.5627731936
 H       -14.6972126283        0.6141704584      -12.4817541726
 H       -15.8168994690        1.3994671233      -13.3854935193
 H       -14.2308978108        2.5691912698      -10.9653836971
 H       -16.0370708333        2.0354925991      -10.9361054146
 H       -13.7185877994        7.5692129793      -13.0593480659
 H       -15.4785601271        7.3421843496      -12.5563788493
 H       -15.9450421699        6.4358063604      -14.5703655396
 H       -14.7354576993        5.3129225082      -14.2948875162
 H       -15.0116752017        7.3276175935      -19.6386007633
 H       -16.5932582183        7.5335643448      -18.8699121045
 H       -16.4704025226        5.8241401263      -20.8925470978
 H       -16.7713273799        4.8820443313      -19.3742834481
 H       -16.9382577289        2.0247002887      -18.3042302731
 H       -15.5886060697        1.3127632773      -19.1095972464
 H       -16.9474284591        0.8357451292      -19.5891558028
 H       -14.4881638186        3.6189927354      -22.8905493113
 H       -16.0509816203        4.1987058436      -22.6256621892
 H       -15.7611922227        2.5122381530      -22.6592323232
 H       -14.1295698496        1.7196751315      -21.1514776876
 H       -13.6131040914        2.3042990349      -19.6082649234
 H       -13.1514241734        3.1012305632      -20.9754801715
 H       -15.9130004711        8.8050861027      -15.6334462840
 H       -15.9403820650        9.0636218942      -17.3174209248
 H       -14.5716806766        9.6429767703      -16.3323175709
 H       -13.0776715626        6.8918379721      -18.3244456539
 H       -12.3889334753        8.1743459288      -17.3934877906
 H       -13.6646051001        8.6102719960      -18.5579415049
 H       -17.1265664275        5.7113022248      -10.1243927474
 H       -17.0683738981        6.0164488749      -11.9135349965
 H       -16.2173262391        7.0692434932      -10.7916148142
 H       -15.2256544136        5.2495393104       -8.9330451444
 H       -13.6710194669        5.3873116224       -9.7682107635
 H       -14.4735619391        3.8349047720       -9.4853312360
 H       -15.5001280859        2.1344727405      -15.8609909477
 H       -14.1278303366        2.0113588892      -17.0359531650
 H       -14.1733232348        3.3222470084      -15.8428666216
 H       -14.0159659729       -0.5731021875      -15.8071916293
 H       -15.3065606807       -0.0234223458      -14.6817112314
 H       -13.8005420293       -0.4791259153      -13.9737782515
 H        -9.8397937720        5.5484525037      -15.7966807716
 H        -8.3686612063        5.3391982331      -16.8029010094
 H        -8.2376624442        5.6531101297      -15.0665922139
 H        -6.7022251791        3.2217802118      -16.1775216903
 H        -7.9241362966        2.6081313645      -17.2189786021
 H        -7.7870552865        1.8847241471      -15.5727712903
 H        -8.2956733456        3.8795332581       -8.7791948781
 H        -8.3203628227        2.5196783385       -7.5825130209
 H        -9.2034141364        2.3522155673       -9.0931954278
 H        -5.9751787913        3.7990844780       -9.3816841358
 H        -4.9796478644        2.3848607534       -9.3648792439
 H        -5.7905628029        2.8862288728       -7.8255033901
 H        -5.4331224085       -3.4134907951       -5.9642423612
 H        -6.3697380677       -2.3444135363       -4.9206153554
 H        -4.9698180589       -3.2102100416       -4.2612498704
 H        -4.6198213937        0.1712087757       -4.0083558553
 H        -3.1620595397        0.1885893204       -5.0675899628
 H        -3.4963438744       -1.1685018103       -3.7436055266
 H         1.7687640585       -1.3126896864       -6.8415942047
 H         3.2485411107       -2.2095666852       -6.4675110380
 H         2.2309028960       -1.8708316038       -5.0693596452
 H         2.6147461342       -3.8473008636       -8.0830407466
 H         0.9415156435       -3.6481591053       -8.5020037744
 H         1.5433298707       -5.1597417187       -7.8172291528
 H         6.9927568872       -7.5003377599       -1.6519646331
 H         5.3184748026       -7.8307125304       -1.7780672709
 H         5.9162204706       -6.1267163880       -1.5662690323
 H         6.9407566607       -5.4406340518       -5.0397613201
 H         8.1465153050       -6.1723868777       -4.1969709696
 H         7.2095558337       -5.0131788475       -3.4534105158
 H        10.2899914096      -13.2143759750       -3.0697459369
 H         9.2061296628      -12.6486132772       -4.2963183432
 H         8.5419872109      -13.5713876106       -2.8832212750
 H        10.5326627123      -11.7431209027       -0.7685298251
 H         9.4048886417      -13.0377598486       -0.8606430095
 H         8.9063097494      -11.3501790260       -0.1731372642
 H        14.8571851660       -5.8229005268       -2.8524926816
 H        14.4808431214       -7.5719591887       -2.9144859578
 H        13.7859858100       -6.5418840290       -1.6505423159
 H        11.6625176256       -4.7109131948       -2.6757343838
 H        12.1016895417       -4.5684545610       -4.4227564525
 H        13.2684288994       -4.1523132951       -3.2746102036
 H        11.6990438129      -10.9724137281       -9.3841605498
 H        12.9851400383      -10.6963639223       -8.2897324433
 H        13.1316736234      -10.3055165641       -9.9671598789
 H        13.1926744897       -7.5583288806      -10.0684618179
 H        11.3200477306       -7.3555078555      -10.3803266332
 H        12.3045909575       -8.6934602484      -11.0912035469
 Na        9.9972900327       -8.9503289489       -5.4603094648
 Na      -12.0227708704        5.0285672680      -14.1750101181
