232

 C         9.3752766569       -8.4671136549       -9.9430535601
 C        10.2548401452       -8.9759982900       -8.8135672914
 O         9.8531708195       -9.4908275218       -7.8112466342
 C        11.8435707575       -8.8918057698       -9.0294783204
 C        12.3043838057       -8.2537286050       -7.6622476745
 O        11.9732977015       -8.8896935326       -6.7103474722
 C        13.1739653280       -7.0187229980       -7.4923377636
 C        12.8234844861       -6.1671315529       -6.2402493881
 C        13.6929533189       -6.5711621073       -4.9383234507
 O        14.6570053668       -7.2588018801       -5.0949673925
 C        13.0323737715       -6.3188808635       -3.5262937093
 C        11.7969079662       -7.2754647847       -3.5423760227
 O        10.8534241460       -6.9914492162       -4.2203316831
 C        11.8986656561       -8.4827598298       -2.6368924470
 C        10.5903823531       -9.2103567481       -2.3400350690
 C        10.3321532188      -10.6164985382       -3.1090836775
 O        10.7166554485      -10.8899413552       -4.2678794734
 C         9.2043173887      -11.4485471662       -2.5088580579
 C         7.8557694288      -10.6913618125       -2.5664542598
 O         7.4466141279      -10.0881503755       -1.6198803828
 C         6.9380663919      -10.8555073208       -3.8301356704
 C         5.8603794568       -9.5858983358       -4.0186605020
 C         6.6449730903       -8.2871616708       -4.2105560873
 O         7.7703767173       -8.3736632371       -4.7376439853
 C         6.1948065670       -6.8916316166       -3.6769859832
 C         4.6229291861       -6.8423592902       -4.1074030160
 O         4.0209292888       -7.8249356228       -4.3912982546
 C         3.9725846116       -5.4185401993       -4.1483046744
 C         3.1485310771       -5.2851430546       -5.4257089982
 C         1.9019735451       -4.4650194016       -5.1769887833
 O         1.3497407891       -4.4809898021       -4.0967609142
 C         1.4726346897       -3.4431288098       -6.3406972677
 C        -0.0362324347       -3.1092903328       -5.9990601260
 O        -0.3204562152       -2.3059339703       -5.1708642499
 C        -1.2526733178       -3.7402395201       -6.8475373907
 C        -2.5826871358       -3.4543495987       -6.0811492437
 C        -3.2545673404       -2.0422633279       -6.5013410235
 O        -2.6021956653       -1.3959574048       -7.3512346063
 C        -4.4893259052       -1.6055502115       -5.6845260223
 C        -5.2474435164       -0.7410961421       -6.7589866895
 O        -5.3742038949        0.4283064310       -6.5110505877
 C        -5.8023171900       -1.3439288593       -8.0774820784
 C        -6.0014127113       -0.2942634669       -9.1808492213
 C        -7.1850598301        0.5635261990       -8.8672289278
 O        -8.1760880165        0.0764339308       -8.3618812858
 C        -7.1123977715        2.1228209087       -9.3893490184
 C        -7.1439576270        2.0310639754      -10.9516057835
 O        -6.4693947839        1.2162830025      -11.5578606678
 C        -8.1828650180        2.8959430401      -11.7536451755
 C        -8.1998690690        2.4914350799      -13.2229204636
 C        -9.2474157342        3.3063229412      -14.0446329477
 O       -10.2260651306        3.7418281433      -13.4583530501
 C        -9.0559730811        3.4829976405      -15.6002181273
 C       -10.4029679080        2.9135045153      -16.2703252425
 O       -11.4410627834        3.4990585822      -16.0315576435
 C       -10.4553830463        1.6881734189      -17.0846236203
 C       -11.8285501446        1.0299731443      -16.8831034069
 C       -12.2706690737        1.1524360396      -15.4095176965
 O       -11.4305874750        0.8242231206      -14.6027262495
 C       -13.7898466751        1.4072344421      -15.1127736817
 C       -13.9637560851        2.1829299717      -13.7696863094
 O       -13.3017455499        3.1553457960      -13.5089630926
 C       -14.9907881189        1.6712958131      -12.7401417236
 C       -15.3001958451        2.5730422996      -11.5724125930
 C       -15.5953850028        4.0159103158      -11.9900160413
 O       -16.1864712896        4.1646027346      -13.0570921703
 C       -15.2481313994        5.2639348376      -11.1320184862
 C       -14.1827089251        6.0103916633      -12.1039077730
 O       -13.0303704450        5.6431885346      -12.1098190252
 C       -14.5953131155        7.1219904490      -13.0811869998
 C       -14.8729522931        6.5273931376      -14.5565531412
 C       -13.8913299885        7.1287893232      -15.3858513481
 O       -12.6825345557        7.2005011740      -15.1075751694
 C       -14.3901807044        7.6570433824      -16.8109867840
 C       -15.2982590170        6.4484155587      -17.4946201687
 O       -15.4899874003        5.4193411290      -16.9400453606
 C       -15.9352384010        6.7508689720      -18.8308788886
 C       -16.1782094872        5.6118970452      -19.7637146582
 C       -14.9167875934        4.6961754160      -20.0666679703
 O       -13.8715832102        4.9459183968      -19.5111558091
 C       -15.1217155538        3.3870662231      -20.9575090394
 C       -16.4825405866        2.7586597178      -20.3780411301
 O       -17.4563711959        3.2799016082      -20.7631746922
 C       -16.4778130161        1.9727903855      -19.0375404861
 C       -15.1855980425        3.6836763497      -22.4472033492
 C       -13.9424934989        2.4234257649      -20.6627956680
 C       -15.3660565320        8.7932859562      -16.6249044815
 C       -13.2119668836        8.0881574705      -17.6593108403
 C       -16.5535587114        6.0335193246      -10.8172795105
 C       -14.4823238844        4.8710812004       -9.8307359226
 C       -14.5767474200        2.3572466848      -16.1109213659
 C       -14.2755772594       -0.0313966660      -15.0424492743
 C        -8.9344381918        5.0569458117      -15.9630418620
 C        -7.6870766781        2.8703084461      -16.1321541674
 C        -8.4737626846        2.7313767950       -8.8836641325
 C        -5.8642362480        2.9666291492       -8.9469320308
 C        -5.3711845388       -2.8001489400       -5.1949886217
 C        -3.8999760336       -0.8613376063       -4.4077532198
 C         2.4075252492       -2.2046124946       -6.2285399082
 C         1.5314830469       -4.0976696369       -7.7044094232
 C         6.1434225789       -6.9803705409       -2.1220732727
 C         7.1126811884       -5.7115646442       -4.0950430017
 C         9.0644312242      -12.8022850375       -3.3117627175
 C         9.5312511789      -11.8071064986       -0.9316730074
 C        14.0792711646       -6.5314520826       -2.4617365147
 C        12.5469442066       -4.8626227464       -3.5044188301
 C        12.2289485902      -10.4331880366       -9.1398356737
 C        12.2006474152       -8.0234798046      -10.3203950550
 H         9.5552895285       -7.3833578436      -10.0870691600
 H         8.2921138328       -8.6061385123       -9.6257226948
 H         9.4336595907       -8.9778454719      -10.8904895777
 H        13.3539321537       -6.3963434077       -8.3999653516
 H        14.2139777826       -7.5345380729       -7.1938857314
 H        11.7725556075       -6.1779039883       -5.9236414495
 H        13.0061961617       -5.1189281905       -6.5819881232
 H        12.2043472027       -7.9498816041       -1.7527023149
 H        12.6445450575       -9.2279679233       -3.1050204498
 H         9.6806294280       -8.5828064180       -2.5989143419
 H        10.5407361748       -9.4061954466       -1.2485592503
 H         6.2928503952      -11.6731330467       -3.5814695201
 H         7.5244945260      -10.9258361267       -4.7525701813
 H         5.3156372442       -9.6674981142       -3.0724616107
 H         5.1713567862       -9.6436913527       -4.8656229362
 H         4.7624297885       -4.6583535092       -4.0856162054
 H         3.3358667219       -5.3249750997       -3.1981245297
 H         2.7935120109       -6.2171665233       -5.8514615365
 H         3.8388935273       -4.9870580686       -6.2460628911
 H        -1.1377374116       -4.7945686946       -6.9458364435
 H        -1.3245280131       -3.2732287714       -7.8328648789
 H        -2.4155332979       -3.4249147269       -5.0120003892
 H        -3.3194961592       -4.3015487313       -6.2516791890
 H        -6.7763394655       -1.9113308224       -7.7338702805
 H        -5.0498294226       -1.9910590076       -8.5452184084
 H        -6.2279178625       -0.8598087796      -10.0957760619
 H        -5.0773688064        0.2729954917       -9.1909934272
 H        -8.0036232238        4.0300115676      -11.6273392560
 H        -9.2228246106        2.8111338448      -11.3780989792
 H        -8.3393534930        1.3870760092      -13.2914936507
 H        -7.2390922375        2.5341123185      -13.7265445849
 H        -9.6275227594        0.9774525011      -16.9613595841
 H       -10.2654384089        1.9091572899      -18.2097665609
 H       -11.7554397217       -0.0613582350      -17.1711780384
 H       -12.5402164195        1.4996749455      -17.5939711866
 H       -14.5330637112        0.7261312349      -12.2562628464
 H       -15.8135331387        1.2379893259      -13.3820340589
 H       -14.5185986510        2.4063303587      -10.8372666304
 H       -16.2551850587        2.3855759716      -11.1942462450
 H       -13.7372544468        7.7679429013      -13.1641217908
 H       -15.4664246334        7.6063934849      -12.6221807513
 H       -15.8653630877        6.8595472215      -14.9016450668
 H       -14.8394087561        5.4578559600      -14.8237048533
 H       -15.5408527707        7.6328567586      -19.3168359013
 H       -16.9741826936        6.9707686358      -18.4002291917
 H       -16.6981000647        6.0358070891      -20.6345369808
 H       -16.8419350732        4.9411205226      -19.1339133441
 H       -16.5118317746        2.8792384087      -18.4220673444
 H       -15.5883267541        1.4721807956      -18.6067935377
 H       -17.1763921403        1.2137984360      -18.7553811811
 H       -14.2500012342        3.9852429641      -22.8919878729
 H       -15.9128809601        4.4389773019      -22.8214364170
 H       -15.4752769727        2.8126122214      -23.0452906145
 H       -14.1247753246        1.3819536366      -20.8852124775
 H       -13.5956298141        2.5453679680      -19.5505609057
 H       -13.0401554278        2.7388607957      -21.2802768480
 H       -16.3495619630        8.4634095654      -16.1911123641
 H       -15.7474902481        9.1911228217      -17.5450111233
 H       -14.9684222404        9.5483657508      -16.0018058132
 H       -12.4977111284        7.2684903839      -17.8947000698
 H       -12.6720331335        8.8680501651      -17.1636823365
 H       -13.5585443578        8.5757421298      -18.5439844085
 H       -17.2478985029        5.3280408522      -10.3380320824
 H       -17.0020154060        6.4943586798      -11.6707922392
 H       -16.3400233956        6.9085035305      -10.1110492548
 H       -14.7667095378        5.5362699494       -8.9895504703
 H       -13.4003411978        4.9444633700       -9.8844531723
 H       -14.7555037998        3.7987017426       -9.6358514995
 H       -15.6077373990        1.9234325529      -16.3875510820
 H       -14.0026837892        2.4282150901      -17.0429876719
 H       -14.7304718065        3.2787376211      -15.6273972425
 H       -13.8183123236       -0.5172237451      -15.9144580339
 H       -15.3849159088       -0.0503572032      -15.0610305307
 H       -14.0237415018       -0.4487805625      -14.1110106592
 H        -9.8484474267        5.4930949695      -15.6005611889
 H        -8.7909035631        5.1219639609      -17.0235294977
 H        -8.0985728688        5.6013257164      -15.3925841718
 H        -6.8650502573        3.1102354881      -15.4986841220
 H        -7.3900197456        3.2945968175      -17.0722553711
 H        -7.8491388223        1.7873086495      -16.2224474560
 H        -8.5017880800        3.6944037488       -9.2921808883
 H        -8.3444104053        2.8554885507       -7.7387014277
 H        -9.3769374825        2.1654801263       -9.2661596669
 H        -6.0024340079        4.0092579392       -9.0770583696
 H        -4.9413588469        2.6702745567       -9.5156205930
 H        -5.6112876304        2.6886637021       -7.8536476734
 H        -5.8456657854       -3.4027205136       -5.9661996425
 H        -6.1379887579       -2.4763950788       -4.4618287348
 H        -4.6992165324       -3.4866996031       -4.8015027257
 H        -4.5994870842       -0.5476661227       -3.7657570841
 H        -3.2709974371       -0.0881456954       -4.7654158218
 H        -3.2934696659       -1.6428846981       -3.8820535280
 H         2.3571529613       -1.6040873787       -7.1068501589
 H         3.4416626692       -2.5332221451       -6.0981292880
 H         2.1591232413       -1.6612721928       -5.3680652306
 H         2.5989229621       -4.0409375748       -8.0205291883
 H         0.8652561230       -3.5192797593       -8.4752313450
 H         1.2749906690       -5.1902941294       -7.6657473957
 H         7.1326891255       -6.9884409538       -1.7030161335
 H         5.6956834888       -7.9098315425       -1.6805695327
 H         5.7382424468       -6.0408529096       -1.7873686393
 H         6.7910553169       -4.8974990870       -4.7453477655
 H         8.0102470525       -6.0421290311       -4.7075208008
 H         7.5784750015       -5.2041120048       -3.1874664709
 H        10.0317409275      -13.2813239163       -3.3536275948
 H         8.7076548744      -12.6575538714       -4.3515003182
 H         8.3110025103      -13.4229931437       -2.8163082198
 H        10.3715678787      -11.3034615996       -0.4961024396
 H         9.6760281286      -12.8594779452       -0.9177043369
 H         8.6448438993      -11.5553646671       -0.3875964366
 H        14.9489170314       -6.0045699761       -2.8155666975
 H        14.3458994069       -7.5760914801       -2.5227908466
 H        13.7962285780       -6.2766316192       -1.3611670258
 H        11.7941042825       -4.7020973365       -2.7282735801
 H        12.1572119197       -4.5709647007       -4.4906835059
 H        13.4214153636       -4.2102303703       -3.3388797925
 H        12.0433149712      -10.8314973832      -10.1536537155
 H        11.5542408997      -11.0166518053       -8.4962176254
 H        13.2608528177      -10.6031733076       -8.7472189705
 H        13.1396529759       -8.2564835149      -10.7702099900
 H        12.0310108364       -6.9586001794      -10.1619712494
 H        11.5514822667       -8.3227092582      -11.1620100710
 Na       10.1788757466       -9.1028736642       -5.4352786924
 Na      -11.9480273822        5.0168242947      -14.0973704294
