232

 C         9.6053655830       -8.1286256484       -9.9809246964
 C        10.3378428567       -8.7079995911       -8.7252837961
 O         9.6248681993       -9.0899962174       -7.8372247445
 C        11.8313273074       -8.7762621743       -8.8563503994
 C        12.4610452223       -8.2227904780       -7.6106554151
 O        12.3550517030       -8.8449950501       -6.5866594446
 C        13.4344867711       -6.9186361815       -7.5792862255
 C        13.2191969431       -6.0658107670       -6.3428807532
 C        13.8572613048       -6.7212661553       -4.9444416514
 O        14.8999995473       -7.2537815636       -4.9770819653
 C        13.0714250418       -6.3837339319       -3.6929208063
 C        11.7719999555       -7.4318183572       -3.7448294277
 O        10.8957556449       -7.1639154757       -4.5418088574
 C        11.7665591437       -8.7062104273       -2.8850916742
 C        10.3820452078       -9.2672592685       -2.5314936146
 C        10.1422613478      -10.6102949047       -3.1286514315
 O        10.8170076442      -10.9222108164       -4.1479157008
 C         9.2717471325      -11.5602064378       -2.5048310645
 C         7.9510343848      -10.7777324173       -2.7163363915
 O         7.6056954993      -10.0141057475       -1.8418284136
 C         7.1598226561      -10.8509924171       -3.9904450069
 C         6.1688353675       -9.6355603411       -4.1114918668
 C         6.8910173615       -8.2765456424       -4.0972940560
 O         8.0810120351       -8.2273772943       -4.3619901893
 C         6.0677561182       -6.9632168559       -3.6683496133
 C         4.6102101856       -7.0844171086       -3.9660424680
 O         4.0888272878       -8.1181702830       -4.2403030243
 C         3.8005282045       -5.7300160262       -3.8272458824
 C         3.2581629310       -5.2969357809       -5.1962593046
 C         2.1039588853       -4.2593454462       -5.0362978492
 O         1.4255028331       -4.2838328321       -4.0277303203
 C         1.5242586610       -3.4587971965       -6.2866116341
 C        -0.0337529280       -3.0249516515       -5.9534720155
 O        -0.1607559992       -2.1278167728       -5.1984587338
 C        -1.1924616933       -3.8442214042       -6.5727205377
 C        -2.6658306108       -3.5480181175       -6.0314655362
 C        -3.1479302129       -2.1094883869       -6.4568126288
 O        -2.5695093247       -1.5783719427       -7.4404199582
 C        -4.5203136779       -1.7173001645       -5.7332335038
 C        -5.2599772300       -0.6901229424       -6.7234958145
 O        -5.0724785917        0.4937049389       -6.5698741822
 C        -6.0546609388       -1.1845256402       -7.9559315954
 C        -6.1126586325       -0.2400629770       -9.1179511027
 C        -7.2928946013        0.6462220032       -8.9049822442
 O        -8.2663996211        0.3021316501       -8.2790837647
 C        -7.1118119276        2.0826758358       -9.5042536136
 C        -6.9994253694        2.0714025343      -11.0533181455
 O        -6.1694133087        1.3863382490      -11.5856386966
 C        -7.9636463174        2.9268268654      -12.0013148172
 C        -8.3477393400        2.2895815138      -13.3537810608
 C        -9.2521448974        3.2536550554      -14.0426833957
 O       -10.0911200686        3.8633865754      -13.4119064992
 C        -9.1021932613        3.5086639267      -15.6241483395
 C       -10.5770823891        2.8477106924      -16.0629177085
 O       -11.6231443103        3.4246121840      -16.0419792764
 C       -10.5116273921        1.4236477411      -16.6518602585
 C       -11.8928470256        0.8303293138      -16.8461979635
 C       -12.5103583092        0.8625982478      -15.4448012602
 O       -11.7631722029        0.7285833573      -14.5122264052
 C       -14.0999390043        1.2779493092      -15.2608739879
 C       -14.2108151993        2.0562918722      -13.8655011672
 O       -13.3830201795        2.9486596166      -13.6729909664
 C       -15.2823711165        1.7300914806      -12.7509398961
 C       -15.0151840629        2.6659087052      -11.5358235196
 C       -15.6510211039        4.0351277117      -11.8894343366
 O       -16.4557508748        4.1576989309      -12.7578056363
 C       -15.1913636588        5.4068171391      -11.0572717178
 C       -14.2344379085        6.1068651257      -12.0580484290
 O       -13.0879043240        5.6813048368      -12.1804597939
 C       -14.6824633848        7.2629260611      -12.9256898475
 C       -14.9863606357        6.9105554097      -14.4139473720
 C       -13.8760627303        7.2472991449      -15.4248323849
 O       -12.7405175008        6.8072204820      -15.3423645835
 C       -14.3308724624        7.8734651929      -16.7130754519
 C       -15.1293750917        6.6159379112      -17.4713329934
 O       -15.4500059147        5.5876666629      -16.9686919872
 C       -15.5611562796        6.9329459494      -18.9037684794
 C       -16.0936153865        5.6285908173      -19.5724143130
 C       -14.8992625267        4.5959951788      -19.6865107973
 O       -13.8612909110        4.6833486677      -19.0773765349
 C       -15.1828067961        3.5220145476      -20.7501955436
 C       -16.5154267491        2.7385262743      -20.3618802688
 O       -17.3793883100        2.5858221194      -21.1832022229
 C       -16.6664101734        1.9698753754      -19.0914260303
 C       -15.3597247814        4.2125089834      -22.1852463355
 C       -13.9856260470        2.4909339264      -20.7246534236
 C       -15.3603958734        9.0525645149      -16.5360266783
 C       -13.1587065594        8.1530715848      -17.6665228214
 C       -16.4974824140        6.2245996290      -10.7095947772
 C       -14.4569861764        4.9709003010       -9.7398585463
 C       -14.6220432640        2.3277063028      -16.2835698146
 C       -14.9612650914       -0.0090492424      -15.3369421756
 C        -9.0684090211        5.0424849797      -15.9162535041
 C        -7.9296384316        2.7917040072      -16.3187762589
 C        -8.3520203698        2.8947911248       -9.1267056194
 C        -5.7551450975        2.7441323220       -9.0642464822
 C        -5.4371946004       -2.9325633953       -5.4892232409
 C        -4.1859253164       -0.9892423254       -4.3245951956
 C         2.3405563437       -2.1934879118       -6.2908194183
 C         1.6721452941       -4.3289149530       -7.5650670848
 C         6.3203149586       -6.9838376550       -2.0658730904
 C         6.7519144358       -5.7716603232       -4.3469373160
 C         9.1609292256      -12.9174578251       -3.3681001275
 C         9.5850053996      -11.8733679993       -0.9410521566
 C        14.1316264179       -6.4668955755       -2.5677001833
 C        12.4692219019       -5.0392766109       -3.7263831275
 C        12.1920411196      -10.3452860025       -8.9325781288
 C        12.3335543025       -8.0252312066      -10.1164117442
 H         9.8376306350       -7.0800888847      -10.0679476603
 H         8.4947698404       -8.2561606914       -9.8536391194
 H         9.7854988512       -8.6282915191      -10.8741572785
 H        13.2905743095       -6.3057720211       -8.4405929380
 H        14.4326117372       -7.3051544341       -7.6345218654
 H        12.2072651126       -5.7434184737       -6.2490787707
 H        13.8334392898       -5.2027180218       -6.4133677545
 H        12.1834332095       -8.4472710200       -1.9650239864
 H        12.3479845282       -9.3807886315       -3.4821448001
 H         9.5336435907       -8.6132074591       -2.7164380236
 H        10.3784720805       -9.3253808021       -1.4474068140
 H         6.5432915111      -11.7578991732       -3.9124361079
 H         7.7029829121      -10.7813618568       -4.8972661339
 H         5.6509849773       -9.6722386612       -3.2149487759
 H         5.4672263072       -9.7362143650       -4.9796082113
 H         4.4182627085       -5.0129787105       -3.3961841812
 H         2.8932858135       -5.7692491349       -3.2307339196
 H         2.8534004717       -6.1487721649       -5.7369988648
 H         4.0241761716       -4.8351063102       -5.9007864987
 H        -0.8717360711       -4.8845936627       -6.3778494412
 H        -1.2482384650       -3.7401745615       -7.6987311415
 H        -2.7659479216       -3.7682995172       -4.9896870585
 H        -3.3942673757       -4.1213854608       -6.6706057550
 H        -7.1814334772       -1.4467597104       -7.7531302517
 H        -5.5333915541       -2.0682553086       -8.1858362739
 H        -6.2885113424       -0.7386784478      -10.0435257881
 H        -5.2393074450        0.4040306637       -9.0532829765
 H        -7.5586767722        3.8552462632      -12.3801941570
 H        -8.8166696751        3.2590605288      -11.5811085476
 H        -8.9673386320        1.3759179707      -13.3370927095
 H        -7.5158810646        2.0273367010      -14.0072137354
 H        -9.8894851284        0.7052529428      -16.1242119693
 H        -9.9105959606        1.4400810795      -17.6362846461
 H       -11.9078961182       -0.1674128517      -17.2239237833
 H       -12.4674960811        1.4077748852      -17.5822315397
 H       -15.1348702959        0.6531096406      -12.4950809964
 H       -16.2604237842        1.8581856715      -13.0487928281
 H       -13.9520406283        2.9089464792      -11.3328245101
 H       -15.6344227503        2.1832993124      -10.6758724887
 H       -13.8379298371        7.9926009966      -12.8045072168
 H       -15.5773605605        7.7956235070      -12.4800596504
 H       -15.8134348346        7.5880204735      -14.5951862988
 H       -15.3524869730        5.8756832527      -14.6298882930
 H       -14.8597275898        7.4912439770      -19.4423971071
 H       -16.4985831953        7.4588641160      -18.7141216275
 H       -16.5685105106        5.9330879134      -20.5051724669
 H       -16.8243143949        5.2838928318      -18.8254567211
 H       -16.0211848565        2.0723996706      -18.2036278525
 H       -16.6233310935        0.8652866666      -19.2405633385
 H       -17.7051697708        2.0956241204      -18.7956698636
 H       -14.8472889965        5.1905839178      -22.2242681575
 H       -16.3668483065        4.3618763762      -22.5350929256
 H       -14.9099706732        3.6705061629      -22.9956032053
 H       -14.0789721165        1.7703222844      -21.4068915726
 H       -14.1024578133        2.0450642345      -19.7819780622
 H       -12.9719401357        2.8450906504      -20.8023464844
 H       -16.3568509907        8.7447872866      -16.2171688432
 H       -15.6270701294        9.4329413777      -17.5315984788
 H       -15.0263297583        9.8550833896      -15.8905005181
 H       -12.4663129585        7.2913882058      -17.6919980833
 H       -12.6783750606        9.1057174572      -17.4906934713
 H       -13.5220195624        8.2867438693      -18.6997474959
 H       -17.0104223075        5.8200245553       -9.8159475992
 H       -17.2097986738        6.4115432434      -11.4718589209
 H       -16.0921109765        7.2144628162      -10.4360943482
 H       -13.3721206510        5.0800560461       -9.8334233544
 H       -14.6335997284        3.9659943790       -9.5229242160
 H       -14.9257854053        5.3645609656       -8.8579784981
 H       -15.5329912525        2.7170714054      -15.8338394246
 H       -14.9895695149        1.7729427779      -17.1533521729
 H       -13.9570576073        3.1109470938      -16.3189275142
 H       -15.2976672162       -0.1831954008      -16.3802343868
 H       -15.8291637091        0.1508705505      -14.6962795171
 H       -14.3783273419       -0.8740711049      -14.9985702331
 H        -9.3930896945        5.5500328741      -15.0796838979
 H        -9.5220035061        5.2904276262      -16.8928617188
 H        -8.0293011576        5.3321765302      -16.0266653089
 H        -7.0789695045        3.5429981916      -16.2948898804
 H        -8.1652397360        2.6795165227      -17.3593992503
 H        -7.6304386791        1.7787382595      -15.9866657342
 H        -8.1971535705        3.9194519426       -9.3281983225
 H        -8.4318884207        2.7050452777       -8.0181118770
 H        -9.1729654222        2.4514207380       -9.6679780507
 H        -5.7978584248        3.7565239358       -9.4386687568
 H        -4.9115822608        2.1941704554       -9.4256456577
 H        -5.5211417850        2.6176412759       -7.9727849441
 H        -5.3292053026       -3.6075974513       -6.3601654871
 H        -6.4935231929       -2.6718788585       -5.5019630106
 H        -5.1793241747       -3.5978776574       -4.6720002888
 H        -5.1053311893       -0.7495731654       -3.8615417649
 H        -3.5727408137       -0.0578783194       -4.5835077371
 H        -3.5179963947       -1.6524539628       -3.6799530880
 H         1.9849718538       -1.4976006835       -7.0619448335
 H         3.4121936433       -2.5301407540       -6.4591687676
 H         2.2281691427       -1.5788884529       -5.3590782895
 H         2.5887859050       -4.8409286591       -7.6528593275
 H         1.4783599649       -3.7523401584       -8.4653189820
 H         0.8520693094       -4.9611134112       -7.5525125249
 H         7.3132912223       -7.1075104097       -1.7599300729
 H         5.7461971788       -7.8634479636       -1.6673381200
 H         5.8599571049       -6.0477226838       -1.6224609319
 H         6.2607705298       -5.4216129575       -5.1959587747
 H         7.7225481727       -5.8987904250       -4.7929003057
 H         6.8027453358       -4.9711500939       -3.6585687807
 H         9.9431924480      -13.4697928342       -2.9817148107
 H         9.2380149153      -12.7499361568       -4.4545508849
 H         8.1806254244      -13.4877044724       -3.3247782331
 H        10.6518676050      -11.6101635577       -0.6971724874
 H         9.3136676224      -12.9227210167       -0.7790629798
 H         8.8907347260      -11.2654520684       -0.3433042007
 H        14.6438951954       -5.5483358577       -2.4878359417
 H        14.8182203211       -7.2703059845       -2.7294209374
 H        13.6131719696       -6.7012006631       -1.6098308526
 H        12.5636338267       -4.5717763840       -2.7388416971
 H        11.4399957215       -5.1121531004       -3.9166164464
 H        13.0163673809       -4.3531778485       -4.3962394611
 H        12.6163905668      -10.5967952957       -9.8838074510
 H        11.3833325273      -10.9786317167       -8.7951629063
 H        12.8628478204      -10.5279840742       -8.1188287037
 H        13.3723704891       -7.6907935199      -10.0834231165
 H        11.7899205546       -7.0228576488      -10.2829489139
 H        12.3484417071       -8.5300866957      -11.1386260634
 Na        9.9955619761       -8.9807299092       -5.6891159719
 Na      -12.0421919375        4.9717080369      -14.2106962854
