232

 C         9.5845818993       -7.9556982778      -10.0836990473
 C        10.3256690049       -8.4034583799       -8.8947314258
 O         9.6351432029       -8.6628926801       -7.8951907430
 C        11.9008609541       -8.6510071079       -8.8477166970
 C        12.5137764246       -8.1098678209       -7.4688636264
 O        12.3689726982       -8.6429725004       -6.3658770884
 C        13.4598524073       -6.9626600681       -7.5793007390
 C        13.4778695798       -6.0299482398       -6.4517145767
 C        13.8889780818       -6.6133405797       -5.1396056357
 O        14.9067371032       -7.3433185129       -5.0744087999
 C        13.0710048252       -6.3751728455       -3.8031253583
 C        11.9662170271       -7.4633998494       -3.8567173909
 O        11.0760848861       -7.3141196636       -4.6742794916
 C        12.0350144970       -8.7216220400       -2.9212699304
 C        10.6877721113       -9.3676768744       -2.5266450171
 C        10.2767180503      -10.6150906264       -3.2513906346
 O        10.5163652247      -10.7587666033       -4.4102908839
 C         9.4154951019      -11.7060372361       -2.4892429770
 C         7.9192013515      -10.8193073487       -2.7260837697
 O         7.6288459583      -10.0809313211       -1.8048466037
 C         7.3255871080      -10.8405917206       -4.0588385993
 C         6.3009754116       -9.7064740690       -4.2080795252
 C         6.9140050144       -8.3136921452       -4.1459467210
 O         8.1048641403       -8.2049437674       -4.4257984366
 C         6.0922455672       -7.0436995544       -3.6531429999
 C         4.4276002232       -7.1075358574       -3.9608717567
 O         3.8571248964       -8.1052528373       -4.3659853545
 C         3.5987851561       -5.8488363623       -3.7166171121
 C         3.2244563167       -5.2279710826       -5.0520502347
 C         1.9906970833       -4.2775515292       -4.8822847191
 O         1.4575696386       -4.1947164560       -3.7997966064
 C         1.5244712205       -3.5191289735       -6.1220602403
 C         0.0775773626       -3.0315540899       -5.9425260612
 O        -0.2331922576       -2.0283419250       -5.3217169140
 C        -1.1009455847       -3.9289597990       -6.4882431202
 C        -2.3804012571       -3.5556123850       -5.7825997162
 C        -3.0754690899       -2.3729784234       -6.4550767248
 O        -2.6307683237       -1.7115475360       -7.3386636610
 C        -4.5338882319       -1.7714672507       -5.8241408152
 C        -5.0645660061       -0.7161364067       -6.8006703766
 O        -5.0123683246        0.4902321139       -6.6606407165
 C        -5.9095574106       -1.3157005434       -7.9260343716
 C        -6.2662414514       -0.3566064679       -9.0771122453
 C        -7.3165395051        0.7373886193       -8.9743316746
 O        -8.3560724577        0.5623001641       -8.3996796678
 C        -7.1098641110        2.1480516179       -9.5613076498
 C        -6.8516777895        2.0632491671      -11.1267528080
 O        -6.0163826201        1.2512173180      -11.4853360412
 C        -7.8153474533        2.9236360792      -12.0215605962
 C        -8.2867219181        2.3231348473      -13.3796244211
 C        -9.2637393259        3.3588037362      -14.0707195010
 O        -9.9633372062        4.0891869803      -13.3870471166
 C        -9.1904116973        3.4423080317      -15.7038194068
 C       -10.5821435586        2.8632036700      -16.1900437485
 O       -11.6171904456        3.5342199059      -16.1454390960
 C       -10.6452935990        1.4608434160      -16.6927898781
 C       -12.0498289648        0.7553978692      -16.6558269890
 C       -12.7759395281        0.7564225717      -15.3230490922
 O       -12.2313257928        0.4142552746      -14.2788208877
 C       -14.2219480111        1.3239087335      -15.2298921181
 C       -14.2506185127        2.1474315106      -13.9110189464
 O       -13.4555211850        3.0463192885      -13.7248418916
 C       -15.2175816564        1.7668248456      -12.7460755026
 C       -14.9646523619        2.7612443299      -11.5890447384
 C       -15.7039463145        4.1345646980      -11.8428000108
 O       -16.6655160758        4.2382690167      -12.5513304608
 C       -15.1620080500        5.3708829332      -11.0194736936
 C       -14.1441355395        6.0782685229      -12.0280855325
 O       -13.0823382707        5.5356762090      -12.2234174956
 C       -14.5111457678        7.2184209404      -12.8597457064
 C       -15.1404859508        6.9139266939      -14.2449593917
 C       -14.0704450385        7.1478563549      -15.3381443718
 O       -12.9267588121        6.7177419473      -15.2588540341
 C       -14.3587666280        7.9228205914      -16.6925951063
 C       -15.0608746155        6.8565223088      -17.5389559174
 O       -15.4686188687        5.8932408010      -16.8487499083
 C       -15.5282848184        6.9951240165      -19.0551007226
 C       -16.1121357482        5.6027973981      -19.5203940582
 C       -15.1152334827        4.5065510922      -19.6165468927
 O       -14.1094590870        4.5845550312      -18.9099866764
 C       -15.2726868000        3.4119704769      -20.7795971112
 C       -16.5500729630        2.5076628471      -20.7068697723
 O       -17.2746486542        2.2885726327      -21.7077597098
 C       -17.0405852678        1.9924350343      -19.2621181085
 C       -15.3848761829        4.3164445715      -22.0644128276
 C       -14.0251590378        2.5327853511      -20.7823260776
 C       -15.0785358042        9.2473728085      -16.5826249521
 C       -12.9886283687        8.3576084409      -17.4542797698
 C       -16.3159540808        6.3018653078      -10.7374445626
 C       -14.3982730209        5.0630413629       -9.6833780824
 C       -14.5140700457        2.2877438612      -16.3726333770
 C       -15.3036689221        0.1211219506      -15.2020865817
 C        -9.3454479964        5.0103419907      -16.0245208544
 C        -7.9125871466        2.7329299546      -16.3624677613
 C        -8.1715656790        3.1624782747       -9.0544274079
 C        -5.8001771605        2.8283503178       -9.0149794549
 C        -5.5186090099       -2.9902169031       -5.6628502900
 C        -4.1657238341       -1.1091689943       -4.4238839413
 C         2.3964840758       -2.2725077126       -6.3562993349
 C         1.6607854252       -4.3372414566       -7.4107177402
 C         6.3949128351       -6.9480350433       -2.1440108088
 C         6.6130892658       -5.7417247307       -4.3274436116
 C         9.4427677424      -13.0930271074       -3.2472732614
 C         9.5317917763      -11.9387207966       -0.9905951453
 C        13.8622994277       -6.6343555748       -2.4734181969
 C        12.4552745578       -4.9608729628       -3.7621717809
 C        12.0780807996      -10.2542841221       -8.7702871033
 C        12.7098250214       -8.1952449370      -10.0432654954
 H         9.4974154543       -6.8520406899      -10.1559063326
 H         8.6036710295       -8.3738689935      -10.0359840962
 H         9.9986066304       -8.4361627359      -11.0357699277
 H        13.2503342490       -6.4520995574       -8.5835023936
 H        14.4437116048       -7.5033567247       -7.7209369506
 H        12.4408895509       -5.6531292092       -6.2633870001
 H        14.2043867294       -5.1974970478       -6.5452956849
 H        12.4893126689       -8.3137180564       -1.9320278978
 H        12.7626240796       -9.3901262541       -3.4456282217
 H         9.8603985504       -8.6081318476       -2.5977002946
 H        10.6847260406       -9.5649241404       -1.4336228296
 H         6.7558961672      -11.7645256493       -4.1849432068
 H         8.0392730307      -10.7392618302       -4.9058945962
 H         5.4644078988       -9.8998104945       -3.4702604466
 H         5.9229756849       -9.8464191643       -5.2032687328
 H         4.2033690218       -5.0924159623       -3.0821390187
 H         2.6713796145       -6.0682609479       -3.1518248044
 H         2.9163671305       -6.0816931667       -5.7307763107
 H         4.0508625885       -4.7132594424       -5.5080680556
 H        -0.9508977939       -4.9976509938       -6.6074147091
 H        -1.2008442963       -3.6169196373       -7.4900118961
 H        -2.0158867410       -3.1258792656       -4.8070296225
 H        -3.0552950245       -4.3881647331       -5.6507193730
 H        -6.8199763336       -1.6861747196       -7.5045204347
 H        -5.3629827934       -2.2698975199       -8.3336590663
 H        -6.7731447122       -1.0275200910       -9.8204105551
 H        -5.3327549161        0.0407861974       -9.4715777548
 H        -7.4203668325        3.9409923653      -12.2942246672
 H        -8.7943126250        3.1860304475      -11.4365636228
 H        -8.8211078667        1.3569910619      -13.2164148331
 H        -7.4431132132        2.1312459287      -14.0690542135
 H        -9.8963011299        0.7949503791      -16.1609518276
 H       -10.2948527091        1.3108027164      -17.6945557599
 H       -11.9758228494       -0.3186102166      -16.9935385507
 H       -12.6477318186        1.2163452602      -17.4601246430
 H       -15.0907555082        0.7082046195      -12.4312313347
 H       -16.3654403604        1.9056217203      -13.0641594505
 H       -13.9349306016        3.0531536275      -11.5357739017
 H       -15.3272586527        2.3061267674      -10.7232034666
 H       -13.6089749414        7.8345798173      -12.8127151372
 H       -15.1990393299        7.7967478765      -12.2767044026
 H       -15.9770115663        7.6272257555      -14.4165514143
 H       -15.5118891010        5.8896035441      -14.1122068713
 H       -14.5615238704        7.1551211205      -19.6504555581
 H       -16.2520261011        7.8131824342      -19.1738072748
 H       -16.6134968466        5.8029439983      -20.4822797919
 H       -16.8478544119        5.2929872958      -18.7482516582
 H       -16.4111251433        2.3762689360      -18.4410195320
 H       -16.9275375200        0.9305273184      -19.0898127398
 H       -18.0700081302        2.3519386590      -18.9928487625
 H       -14.8007648212        5.2493610604      -22.0988117168
 H       -16.4474127255        4.6142352523      -22.1897648123
 H       -15.2065817016        3.7741788577      -23.0178764374
 H       -13.8876829858        1.9551695605      -21.7868759484
 H       -13.8920914517        1.8595473080      -19.9140700724
 H       -13.1320062910        3.1879712071      -20.7916824237
 H       -15.9817857383        9.1174742363      -16.0088939620
 H       -15.3760443322        9.6598942799      -17.5502346565
 H       -14.4735742073       10.0132715555      -16.0705731726
 H       -12.6518443029        7.5401233900      -18.0608072448
 H       -12.2035920521        8.7300247452      -16.7577232524
 H       -13.1839588678        9.1688567488      -18.1643416817
 H       -17.0945653945        5.7691665579      -10.1603393500
 H       -16.9224071474        6.5135943499      -11.6859929016
 H       -16.0991262963        7.2152742233      -10.2201742275
 H       -14.0035706572        4.0512074093       -9.6942640478
 H       -14.9946925518        5.2473385157       -8.7643761900
 H       -13.5777421739        5.7461110863       -9.5112698474
 H       -15.4555378509        2.7325428611      -16.2069018020
 H       -14.5798034080        1.7033791522      -17.2900687798
 H       -13.6811353448        3.0755734534      -16.2365437925
 H       -15.1330815769       -0.6074308538      -15.9949713359
 H       -16.2799164166        0.5883724328      -15.3250152173
 H       -15.1863186680       -0.4766972679      -14.2702026683
 H       -10.2610583423        5.4557090370      -15.5313735666
 H        -9.3776131660        5.0714712906      -17.1321370087
 H        -8.5096121799        5.5995553339      -15.7254771586
 H        -7.0632336688        2.8088486380      -15.7175359230
 H        -7.7386584701        3.1733542249      -17.3601399359
 H        -8.0654482517        1.6965696301      -16.6192456328
 H        -7.9670918792        4.1307117081       -9.6690135348
 H        -8.0624181399        3.3066384365       -8.0136422304
 H        -9.1272926071        2.6784064715       -9.3169130085
 H        -5.8894032703        3.9082651512       -9.3482267563
 H        -4.8471620777        2.3385981914       -9.2358287548
 H        -5.7955439671        2.6927756215       -7.9601759318
 H        -5.7539120134       -3.5652313918       -6.5397508901
 H        -6.4876133648       -2.5551257623       -5.3902306075
 H        -5.3053042706       -3.6281889542       -4.7948584382
 H        -5.1699144376       -0.7193752741       -4.1364962143
 H        -3.5582279065       -0.2677988951       -4.5943171820
 H        -3.6842283680       -1.7279279894       -3.7761148748
 H         1.7772849103       -1.6536423731       -6.9993561380
 H         3.3691130808       -2.4398962826       -6.7411547145
 H         2.3640069436       -1.6440217017       -5.4738352511
 H         2.6644054512       -4.1413096636       -7.9113579082
 H         0.8685154264       -3.9816125813       -8.0653898154
 H         1.4112278276       -5.4579916888       -7.3061715843
 H         7.5125639914       -6.7198181435       -1.9952122374
 H         6.2370927994       -7.9035198250       -1.6653507894
 H         5.7275674323       -6.2462129085       -1.6365312152
 H         6.7223830696       -6.0029191793       -5.4378822623
 H         7.6619359908       -5.5298429642       -4.1816311386
 H         6.0683197854       -4.7851858118       -4.1767909294
 H        10.3514397959      -13.6451880348       -2.9052832390
 H         9.2741849744      -12.9981727916       -4.2977260167
 H         8.5870921094      -13.6619982790       -2.9671682161
 H        10.3794334909      -12.5501309371       -0.8984542550
 H         8.6549206147      -12.4008251097       -0.5644259430
 H         9.6795687616      -11.0092849178       -0.4853321629
 H        14.7500811408       -5.9238355886       -2.4579667992
 H        14.2584526647       -7.6783713386       -2.3225430728
 H        13.2568591018       -6.3876197402       -1.6281225792
 H        11.8807959220       -4.8110872543       -2.8482302742
 H        11.6685327157       -4.9367739445       -4.5577468494
 H        13.1874284007       -4.1753501256       -3.7766512866
 H        12.2215691640      -10.5629060846       -9.8002470328
 H        11.1664943698      -10.7660452079       -8.3720622642
 H        12.9198131660      -10.5811123564       -8.1837155937
 H        13.8062738596       -8.3336567213       -9.9552874587
 H        12.6832689890       -7.1554997601      -10.2881242018
 H        12.4050049186       -8.6771269091      -10.9535080976
 Na       10.1262658190       -9.1415130608       -5.5663345936
 Na      -12.1422159548        4.6169970965      -14.1174288606
