232

 C         9.6911892785       -7.8793857637      -10.1981303836
 C        10.3177560249       -8.3589810487       -8.8686985792
 O         9.6911420213       -8.4311201984       -7.8409328525
 C        11.8706691736       -8.7270749821       -8.8393866191
 C        12.5709604705       -8.0555662632       -7.5804960139
 O        12.3565820559       -8.5801384971       -6.5216247048
 C        13.6490729122       -6.8477419089       -7.6683944075
 C        13.5169913108       -5.8734221746       -6.4480047514
 C        13.9466957372       -6.6378510022       -5.0858273928
 O        14.8534427258       -7.3602908546       -5.0811882306
 C        13.0731881586       -6.4011362780       -3.7011064569
 C        11.9633694194       -7.5263334106       -3.7943753913
 O        11.0306543681       -7.3452593288       -4.5734609339
 C        12.1141549229       -8.8627047540       -3.0126802748
 C        10.7685840759       -9.4065003583       -2.5199614548
 C        10.3511813874      -10.6845069860       -3.2355462441
 O        10.4873092838      -10.9942703572       -4.4216536738
 C         9.3826315971      -11.6301793456       -2.4751855892
 C         8.0290518293      -10.8268244253       -2.7839658488
 O         7.5929855319      -10.2270020614       -1.7874681085
 C         7.3169271801      -10.8921817711       -4.1023406496
 C         6.2894941453       -9.7274260588       -4.2787432437
 C         6.9629775726       -8.3468155239       -4.2232762950
 O         8.0918025271       -8.1157937697       -4.5756589740
 C         6.1026434220       -7.1320032933       -3.6860987081
 C         4.4800748035       -7.1684740517       -3.9118142127
 O         3.9965563623       -8.1298404189       -4.4118660942
 C         3.6515960780       -5.9011288016       -3.6008129532
 C         3.2080055121       -5.2433612129       -4.9274817339
 C         2.0264254922       -4.2073271146       -4.8236606704
 O         1.3803391373       -4.0797776310       -3.7945538858
 C         1.5321228146       -3.4572445771       -6.1584016562
 C         0.0279164426       -3.0099138507       -5.9085686817
 O        -0.1098805937       -1.9875036321       -5.3536076804
 C        -1.1441985379       -3.9015919985       -6.3451928480
 C        -2.4496691158       -3.4647699376       -5.6836415212
 C        -3.1152934360       -2.2910136121       -6.3619277761
 O        -2.6012676044       -1.8811462115       -7.4085658125
 C        -4.5436130448       -1.8152670170       -5.8009421069
 C        -5.2067902546       -0.7860204404       -6.8185538298
 O        -4.8312473292        0.3493353593       -6.6140659603
 C        -6.0119706540       -1.2967560419       -8.1009679319
 C        -6.2978274456       -0.3387644079       -9.2926410252
 C        -7.3147850595        0.7354238260       -8.9158306797
 O        -8.3787117541        0.5927894841       -8.3924508145
 C        -6.9571471139        2.3254428996       -9.5456452707
 C        -6.9266255258        2.0852174313      -11.0750949536
 O        -6.1780349821        1.2904879827      -11.6032345908
 C        -7.8149331297        2.9591623778      -11.9780436511
 C        -8.1987280806        2.3764805848      -13.4122959181
 C        -9.1116418249        3.3692144863      -14.1381633120
 O        -9.8484883690        4.0388136692      -13.4916721285
 C        -9.2813536502        3.3805087674      -15.6535815998
 C       -10.6228178883        2.8045486546      -16.1143201515
 O       -11.5919246185        3.5186857618      -16.2175919481
 C       -10.6495044805        1.3423063712      -16.6293069825
 C       -12.0730749531        0.6831865722      -16.6021208951
 C       -12.7576002293        0.7094022252      -15.2245259585
 O       -12.3376553724        0.1581103985      -14.2401074795
 C       -14.3055730892        1.4274730448      -15.2294117122
 C       -14.3921665012        2.1777844562      -13.9186138696
 O       -13.5465226055        3.0603960831      -13.7370939165
 C       -15.1909186524        1.7922164784      -12.6738223841
 C       -15.0934564489        2.8181786437      -11.5873332255
 C       -15.7694520610        4.1306066197      -11.7468809334
 O       -16.7049622633        4.3139469029      -12.4403412227
 C       -15.1620731908        5.4009106287      -11.0400018939
 C       -14.0874990658        5.9796788481      -12.0410236444
 O       -13.0215317016        5.3956679723      -12.1286441758
 C       -14.4399042207        7.2987019014      -12.8645013660
 C       -15.0947564729        7.0043512255      -14.2152886211
 C       -13.9799905841        7.2122151234      -15.3608573785
 O       -12.9573999145        6.5760289366      -15.1505683221
 C       -14.2994423225        8.0049325044      -16.6929184844
 C       -15.1471733666        6.8857238229      -17.4949613416
 O       -15.6451344609        5.9826091349      -16.8604192278
 C       -15.4681747592        6.9286385878      -18.9840069466
 C       -16.2715569646        5.6675085526      -19.5101491794
 C       -15.2062132875        4.4909591449      -19.6625390612
 O       -14.2950436620        4.3910321801      -18.8928699055
 C       -15.3031574412        3.5031479997      -20.8569168941
 C       -16.5859368222        2.5904485067      -20.8072594489
 O       -17.1391918679        2.1006294220      -21.7827518518
 C       -17.1419826221        2.0827062602      -19.4734868092
 C       -15.3328581831        4.3116388935      -22.1879221724
 C       -14.0962958062        2.4701057327      -20.8058644350
 C       -15.0977072437        9.3690522684      -16.4983441193
 C       -12.8577078960        8.3067019013      -17.2880616052
 C       -16.3788122658        6.3631326485      -10.7321209776
 C       -14.3156897907        5.1621529518       -9.6733714286
 C       -14.7165966181        2.3356747814      -16.4532166987
 C       -15.3425472520        0.2376656356      -15.2303643308
 C        -9.3334699198        4.9238075835      -16.0465787064
 C        -8.0766450771        2.8502532600      -16.3561357031
 C        -8.1838572677        3.1939833420       -9.1004777814
 C        -5.5750078979        2.8007621898       -8.9042569714
 C        -5.4635893738       -3.0383362915       -5.6351302485
 C        -4.1366262713       -1.1286785215       -4.4802006940
 C         2.4223745563       -2.2220018954       -6.2250092437
 C         1.6096703081       -4.4641439277       -7.4532804511
 C         6.2293283300       -6.9298302356       -2.1275739215
 C         6.5825973205       -5.8952135721       -4.4325993621
 C         9.4444048403      -12.9742382740       -3.2471337188
 C         9.6356445584      -11.8734479109       -0.9650107757
 C        14.0103436611       -6.4132238776       -2.4776541266
 C        12.5461520630       -4.9871465134       -3.6889296833
 C        11.9691100020      -10.2591481830       -8.6371509814
 C        12.7951619697       -8.3470731672      -10.0116994658
 H         9.5723198230       -6.8023975434      -10.1720774449
 H         8.6639763625       -8.3085015015      -10.2593528832
 H        10.1639235224       -8.2160471557      -11.0874807209
 H        13.5784861695       -6.3469268163       -8.6584798954
 H        14.5955122029       -7.3202225035       -7.6182078084
 H        12.5085984353       -5.3514232321       -6.2971140241
 H        14.3495422146       -5.1239903560       -6.4098834794
 H        12.8326776476       -8.6647532664       -2.1745290117
 H        12.5909756033       -9.5616544387       -3.7539544835
 H         9.9623228463       -8.6723280050       -2.6246987948
 H        10.7435980587       -9.5977165532       -1.4357318167
 H         6.7195684913      -11.8612325753       -4.2519890234
 H         8.0301317800      -10.8119130097       -4.9427164009
 H         5.5991128303       -9.8467849665       -3.4532078531
 H         5.7054388724       -9.9470054090       -5.2539087836
 H         4.0317042396       -5.1079081807       -2.8998158752
 H         2.7722029197       -6.3635758167       -3.0902538574
 H         2.8997280971       -6.0627837190       -5.6016965188
 H         4.0550442908       -4.6838202952       -5.3190085144
 H        -1.0071654791       -5.0127439754       -6.2684519658
 H        -1.2274354361       -3.8475163203       -7.4728162989
 H        -2.2265873506       -3.2611964885       -4.6286139911
 H        -3.1110220606       -4.3083066238       -5.8269741663
 H        -6.9264463088       -1.7200920209       -7.7607750446
 H        -5.4683319937       -2.1271222916       -8.4325199093
 H        -6.7146366022       -0.9608857755      -10.1181574725
 H        -5.3301808154        0.1247824360       -9.5908738209
 H        -7.1196623055        3.8602933926      -12.1549935904
 H        -8.7045083944        3.3752802860      -11.5929237774
 H        -8.7627704583        1.4735219246      -13.1781631841
 H        -7.3212483160        2.1060096279      -14.0469168867
 H        -9.9940593445        0.6644042609      -16.1251586385
 H       -10.3507722286        1.2405250120      -17.6176391203
 H       -12.0056003345       -0.3563177793      -16.8755224419
 H       -12.6933314982        1.1391491030      -17.3969706818
 H       -14.7946273541        0.8475551477      -12.2204200921
 H       -16.1739699394        1.6306067069      -12.9828822549
 H       -14.0934158067        3.0586120921      -11.4217480947
 H       -15.5413671854        2.3179225904      -10.6779305055
 H       -13.5214911279        7.8603834571      -12.9203862266
 H       -15.0217081567        7.9188659575      -12.2303997060
 H       -16.0036895644        7.5487400660      -14.3738074258
 H       -15.2713241627        5.9318149447      -14.0807935953
 H       -14.5639988681        7.0812162784      -19.6287345332
 H       -16.0934830179        7.8444567533      -19.0172173614
 H       -16.8083950665        5.9856447783      -20.4003179632
 H       -16.9339802641        5.4138049249      -18.7121491896
 H       -16.6700425138        2.3349746876      -18.4980304568
 H       -16.8987573994        1.0208356003      -19.5009934760
 H       -18.2150206425        2.3198931284      -19.3295288138
 H       -14.4182147319        4.9488359047      -22.4068045617
 H       -16.1621044286        4.9935284258      -22.2465086062
 H       -15.4448083366        3.6141216018      -23.0252499197
 H       -14.1467771205        1.8133564611      -21.6709564835
 H       -13.9899712578        1.8994705074      -19.8445861778
 H       -13.0514692582        3.0081183962      -20.9832454724
 H       -15.9814247409        9.1289296948      -15.9362034182
 H       -15.3744545144        9.8189971989      -17.4825409055
 H       -14.5745257092       10.1957529630      -15.9470343166
 H       -12.5483532561        7.4752434115      -17.8549937241
 H       -12.2167498368        8.4228515940      -16.4273862821
 H       -12.7400469408        9.1861528008      -17.9267324532
 H       -17.0148497046        5.6864767242      -10.0773273438
 H       -17.0931239942        6.5105028331      -11.5541745282
 H       -16.2468571926        7.2848989394      -10.1604662227
 H       -14.4232882507        4.0581848219       -9.4105417614
 H       -14.6034988838        5.7876229257       -8.8353938817
 H       -13.2176824286        5.3103076964       -9.7766942195
 H       -15.7409718934        2.5181884789      -16.3181646114
 H       -14.6121623794        1.6390677685      -17.3772415163
 H       -14.1317328258        3.2430443932      -16.3974372492
 H       -14.9902581026       -0.6027534936      -15.8177878432
 H       -16.2828721586        0.5608291276      -15.5946713917
 H       -15.3432912887       -0.2526928737      -14.2171962209
 H       -10.3517124879        5.3372187749      -15.9076299370
 H        -9.0259305796        4.9550097622      -17.1705925349
 H        -8.6412853506        5.5403920806      -15.5084880340
 H        -7.1854300668        3.0725201639      -15.6964372811
 H        -8.0227471812        3.2390364875      -17.3394637443
 H        -8.0469237064        1.7995016720      -16.5147671586
 H        -8.2414181693        4.1418313363       -9.6561131430
 H        -8.0936874237        3.3740227600       -8.0467528740
 H        -8.9912933180        2.5562800202       -9.2552774712
 H        -5.4228835835        3.8446820692       -9.2453127919
 H        -4.7711199038        2.2100760890       -9.1461524077
 H        -5.6329488563        2.7033753756       -7.8380802330
 H        -5.9500604305       -3.3377073797       -6.5644335049
 H        -6.2839083421       -2.6160015935       -5.0918828898
 H        -5.2264559438       -3.8891575340       -4.9368519571
 H        -5.0741641715       -0.6568790814       -4.1957090048
 H        -3.4027579870       -0.2906583525       -4.6891568293
 H        -3.6524064831       -1.8018606999       -3.8084178915
 H         2.2126739584       -1.6162516760       -7.0497155502
 H         3.4124025582       -2.5504403137       -6.2916831934
 H         2.2336225715       -1.5570955671       -5.3789238866
 H         2.6558081425       -4.6757644757       -7.8671351107
 H         0.9461980809       -4.1765323497       -8.2503473889
 H         1.1372937964       -5.3897424758       -7.0564047759
 H         7.2417818963       -6.7464481624       -1.9466662650
 H         6.0363052389       -7.9188720542       -1.7419682238
 H         5.5169503347       -6.2882289646       -1.5380828584
 H         6.8830386650       -6.0490937204       -5.5189023664
 H         7.6196499192       -5.6184314954       -4.0729426468
 H         5.9781369697       -5.0053931079       -4.2892623218
 H        10.3791244476      -13.3907461602       -3.0859377564
 H         9.0501647358      -12.9637856662       -4.2412463991
 H         8.6772625170      -13.6165064474       -2.7079338248
 H        10.2845354824      -12.7445446045       -0.9581939885
 H         8.7265362005      -12.0919257109       -0.4265550057
 H        10.0931127012      -11.0637465519       -0.4460396933
 H        14.8474432133       -5.7113421564       -2.5847095285
 H        14.4136703295       -7.4393414100       -2.2728763289
 H        13.4578601933       -6.1234386583       -1.5947037918
 H        11.7501460018       -4.7449737258       -2.9716373199
 H        12.1431778863       -4.7463912555       -4.6325561131
 H        13.3995243933       -4.3446318298       -3.4174101666
 H        11.5932998397      -10.5824268873       -9.6689198602
 H        11.3303544202      -10.6879786752       -7.8461758170
 H        13.0291128919      -10.6503511977       -8.5452124659
 H        13.6503715929       -8.8981219851       -9.9857388284
 H        13.2570875199       -7.4143713752      -10.0746179033
 H        12.3547487807       -8.4559027619      -10.9605125443
 Na       10.0337312590       -9.0586276163       -5.6523308744
 Na      -12.1026458221        4.7139843210      -14.1437085843
