232

 C         9.8767076240       -7.8365090570      -10.2105472709
 C        10.5099794534       -8.1704273116       -8.8680822353
 O         9.7387331900       -8.2134295113       -7.9235584397
 C        12.0070644065       -8.7713951082       -8.8801474719
 C        12.6761282242       -8.0142858836       -7.5610642536
 O        12.3488929051       -8.4426668086       -6.4852771821
 C        13.6755634078       -6.8366772586       -7.5951735627
 C        13.5254235744       -5.9341083609       -6.3387499145
 C        13.9869384671       -6.6627029738       -5.0358157595
 O        14.8937221835       -7.4486601408       -5.0651634146
 C        13.1272855102       -6.3391754248       -3.6816082854
 C        12.0618282673       -7.4635566579       -3.6993844028
 O        11.0290283949       -7.2571664937       -4.3427972313
 C        12.2622974741       -8.8900135315       -3.1950891564
 C        10.9115245437       -9.4326120561       -2.6358722870
 C        10.4104401032      -10.7866592251       -3.2230934389
 O        10.6534172137      -10.9561838738       -4.4486206650
 C         9.3232198166      -11.7651644478       -2.4543064585
 C         8.0166385038      -10.9439392397       -2.6135845817
 O         7.4464277998      -10.2719478508       -1.7882969170
 C         7.3621241243      -10.9614300997       -4.1064642231
 C         6.2851293052       -9.7321170185       -4.2589335643
 C         6.8578387898       -8.3236945474       -4.2177130644
 O         7.9715221275       -8.0914032216       -4.7094873605
 C         6.1040219559       -7.1432271806       -3.7294290684
 C         4.5110707940       -7.2025575651       -3.9922304582
 O         4.1172105445       -8.2487024807       -4.5021401411
 C         3.6903048535       -5.9776218508       -3.5807114899
 C         3.1649469175       -5.2534538495       -4.8708874277
 C         1.9271755664       -4.3438376320       -4.7880395692
 O         1.3820958308       -3.9744920278       -3.7848665923
 C         1.5641143610       -3.5557102326       -6.0694806463
 C         0.0244504948       -2.9659243891       -5.8540497841
 O        -0.0786310048       -1.8495706376       -5.3287009265
 C        -1.0915146705       -3.8734139100       -6.1608668923
 C        -2.5086928948       -3.5307893466       -5.5560795555
 C        -3.2092481108       -2.4399179274       -6.5075207621
 O        -2.7096263059       -1.9337833502       -7.4844762002
 C        -4.5522600797       -1.8623759488       -5.8681495257
 C        -5.0546920389       -0.8176871965       -6.9750862119
 O        -4.8693057261        0.3608210910       -6.7848249803
 C        -6.0205986659       -1.2693118603       -8.0679017508
 C        -6.2290460736       -0.2207807925       -9.2245502596
 C        -7.2140399431        0.9034296043       -8.9289804079
 O        -8.2756759585        0.5768230157       -8.4118719250
 C        -6.9642701312        2.2846259042       -9.4603784639
 C        -6.9325943110        2.1690104915      -11.1256007727
 O        -6.3084792598        1.2887829945      -11.6893139747
 C        -7.8009496496        3.1061493926      -11.9616494189
 C        -8.0881242064        2.4378618070      -13.3252354632
 C        -9.1543594702        3.3103576735      -14.0923411311
 O        -9.8719594809        4.0625519779      -13.4300772366
 C        -9.2234488879        3.4381804702      -15.7774734699
 C       -10.6594543304        2.7206565412      -16.1825208493
 O       -11.7101301112        3.3530842963      -16.1970218172
 C       -10.6541148306        1.2103164133      -16.4432083898
 C       -12.0954537247        0.6505307796      -16.5884432875
 C       -12.9829655895        0.7000952561      -15.2754753930
 O       -12.5730069107        0.0682599183      -14.3370296200
 C       -14.3686884651        1.3377050738      -15.1776783356
 C       -14.3640812488        2.2448589988      -13.8287150765
 O       -13.6425990140        3.2102810030      -13.7630451864
 C       -15.2575584015        1.8113207066      -12.6378557227
 C       -15.1050867711        2.7365162077      -11.3884964960
 C       -15.7497661595        4.2042201316      -11.6998164621
 O       -16.7730314995        4.3263580138      -12.3871726577
 C       -15.1663056535        5.4721871604      -10.9900277678
 C       -14.1159086195        5.9975592128      -11.9512482771
 O       -13.0586224762        5.3609865248      -12.0901984975
 C       -14.3664288186        7.2811770037      -12.8060681703
 C       -15.0197765971        7.1170701280      -14.1810075321
 C       -13.9643787977        7.1808678625      -15.3261850796
 O       -12.9212869648        6.5899856324      -15.2465982243
 C       -14.2363179457        7.8687868020      -16.5743140836
 C       -15.3212737514        6.9394147193      -17.4048590047
 O       -15.8171115208        6.0996145313      -16.7490609445
 C       -15.4338549406        6.9904517647      -18.9911576798
 C       -16.1760364990        5.7350070166      -19.4812746223
 C       -15.2521513015        4.5036678250      -19.6949072342
 O       -14.4683237150        4.1805741724      -18.8251378921
 C       -15.4542729948        3.5820367279      -20.9862001231
 C       -16.6947021243        2.4836660454      -20.9180236149
 O       -16.9085359036        2.0978740644      -21.9954438713
 C       -17.2078267588        2.1620477702      -19.5414292821
 C       -15.2769044800        4.2169415621      -22.3293151629
 C       -14.2876759985        2.5623914579      -20.8705640301
 C       -15.0173404025        9.1842245993      -16.4160354727
 C       -12.8586114659        8.2078431693      -17.2093276141
 C       -16.2948902125        6.4432419235      -10.6682564469
 C       -14.4109664706        5.1761956624       -9.7258829875
 C       -14.7437234323        2.3266819628      -16.3979252659
 C       -15.3681182040        0.1703104894      -15.2407633267
 C        -9.2371922657        4.9781125338      -16.0655705927
 C        -8.0392012827        2.8112922572      -16.5116920702
 C        -8.1128772547        3.2558835052       -9.0656115399
 C        -5.5772309884        2.6752270094       -8.9440488783
 C        -5.4442004502       -3.0792194542       -5.5183071651
 C        -4.2394702584       -1.1544023223       -4.5765328603
 C         2.4811219874       -2.2741825486       -6.2397642176
 C         1.6351169375       -4.4645049370       -7.3444684411
 C         6.1835300490       -7.0098184328       -2.1362903535
 C         6.6450511237       -5.8804396216       -4.4817400441
 C         9.2988918644      -13.0583349099       -3.2216117379
 C         9.7353912371      -11.7939679066       -0.9800347543
 C        14.2214815937       -6.4039658668       -2.5782086668
 C        12.4033206682       -4.9072688962       -3.6899516732
 C        11.8221005781      -10.2301993732       -8.5118866131
 C        12.7241727135       -8.4969982108      -10.2652310413
 H         9.7753147302       -6.7733105669      -10.1741927868
 H         8.8412353927       -8.2151152004      -10.2505517119
 H        10.3625562462       -8.1294572260      -11.0841415128
 H        13.3977331620       -6.2919469635       -8.4309192308
 H        14.6745580984       -7.1756988464       -7.7557685154
 H        12.5269787291       -5.5598892465       -6.1449272042
 H        14.2491828648       -5.1018720963       -6.4407007812
 H        13.0473176071       -8.9454835001       -2.5263723164
 H        12.5180417350       -9.5000648876       -4.0714608967
 H        10.0972238972       -8.7741692414       -2.9121172740
 H        10.8616940341       -9.3969130369       -1.5591957826
 H         6.7454519698      -11.8435210082       -4.4087854042
 H         8.1138002098      -10.8515939088       -4.9026547401
 H         5.6077435863       -9.9205846712       -3.4491725080
 H         5.6861244458       -9.8439688362       -5.2218577771
 H         4.1732377547       -5.2699731966       -2.9841876494
 H         2.9120766938       -6.4256001456       -2.9365915354
 H         2.9856617339       -6.0391717112       -5.5759964631
 H         3.9908877073       -4.5383585672       -5.1681516602
 H        -0.7643230972       -4.8763576860       -5.7751931989
 H        -1.1992774491       -4.2168694212       -7.2860671730
 H        -2.4245265073       -3.1547252625       -4.5710551330
 H        -2.9823470572       -4.5259241379       -5.6163593904
 H        -6.9326663317       -1.5972955338       -7.5469950085
 H        -5.7172706848       -2.1499635052       -8.4909339371
 H        -6.6356327314       -0.8320273017      -10.0400352676
 H        -5.2009089724        0.0394202666       -9.5178589147
 H        -7.3344746622        4.0691904041      -12.0125532954
 H        -8.7497679593        3.2140424076      -11.5324942133
 H        -8.3464861605        1.4313283269      -12.9679185661
 H        -7.2004264699        2.4417793961      -13.9449416822
 H       -10.1484458166        0.6444856116      -15.7214155746
 H       -10.1971051099        0.9627810344      -17.4266985132
 H       -12.0298770786       -0.3926292612      -16.7869420795
 H       -12.5396563802        1.1065154655      -17.4500858698
 H       -14.9181163908        0.8305566155      -12.3459766394
 H       -16.1948771373        1.7644451659      -13.0691192667
 H       -13.9901448846        2.7947257645      -11.1475434289
 H       -15.7142427935        2.3681604601      -10.5050519639
 H       -13.4008100888        7.7838525602      -12.9635581440
 H       -14.8739323146        8.0309696555      -12.1774394263
 H       -15.5388082988        8.0353248056      -14.3235453091
 H       -15.6539455999        6.2435809284      -14.2694888030
 H       -14.4816369532        7.0737040499      -19.4491815639
 H       -15.9757540934        7.9369828693      -19.1750100090
 H       -16.6926570721        5.9969781047      -20.3765376532
 H       -16.8702477771        5.5279891101      -18.6816816095
 H       -16.7487190903        2.7369361712      -18.7242688970
 H       -16.9579491292        1.1363706599      -19.1788821727
 H       -18.2335020232        2.5013481819      -19.4727531244
 H       -14.2076942710        4.3340265304      -22.4554254839
 H       -15.6622428841        5.2410445004      -22.5018960570
 H       -15.5805896076        3.5544583226      -23.1380106769
 H       -14.3631722933        1.7622232267      -21.5635869519
 H       -14.3175421422        2.1863502531      -19.8156626341
 H       -13.3075856415        2.9501774497      -21.0334609980
 H       -16.0126038496        8.9780606968      -15.9083570186
 H       -15.1153292443        9.6583406314      -17.4065157000
 H       -14.5399810738        9.9661050944      -15.8312475940
 H       -12.4390401757        7.3311136083      -17.7237635181
 H       -12.2162825877        8.5129196755      -16.4383466649
 H       -12.9569706192        8.9722262125      -17.9456390158
 H       -16.9916255244        6.0178835756       -9.9312123423
 H       -16.9196058438        6.5224350714      -11.5150775929
 H       -16.0470029450        7.4847019427      -10.2798471985
 H       -15.0633503399        4.5206174870       -9.1183428956
 H       -14.1551552505        6.0722483998       -9.1488819101
 H       -13.4535647401        4.5755836334       -9.8747928142
 H       -15.8354086637        2.6423641508      -16.1918848144
 H       -14.6628097616        1.7499661843      -17.3006520553
 H       -14.0834725561        3.1111346754      -16.3102259897
 H       -15.0490238546       -0.5348269185      -16.0251547423
 H       -16.3755022664        0.5260889486      -15.5032746117
 H       -15.2909711928       -0.4669636471      -14.4088996587
 H       -10.2324224189        5.3183568761      -15.8417495530
 H        -8.9711063962        5.2106103684      -17.0626454271
 H        -8.5244616822        5.5531517360      -15.3643584242
 H        -7.0937687134        3.3110163957      -16.3427155637
 H        -8.2603178642        2.5537891734      -17.5237854198
 H        -7.8353319371        1.8203979016      -16.0247166033
 H        -7.8410768951        4.1264713319       -9.4400707535
 H        -8.0287625191        3.3391050822       -7.9718965451
 H        -9.0695788186        2.9120936826       -9.3575036649
 H        -5.3770142397        3.5636869109       -9.3778310194
 H        -4.8453354357        1.9901310378       -9.3888961409
 H        -5.3933854635        2.6484427975       -7.8583933365
 H        -5.8957885236       -3.5636180142       -6.4076505810
 H        -6.2719702796       -2.8109708165       -4.8246655789
 H        -4.9524747247       -3.7711191010       -4.8494944624
 H        -5.1478949959       -0.6769674339       -4.3161053060
 H        -3.4261645721       -0.3981092997       -4.6904885281
 H        -3.7844225062       -1.9726943281       -3.8398832027
 H         2.5283707828       -1.7988755709       -7.2057759977
 H         3.5150214104       -2.5682886636       -5.9995821860
 H         2.1130318179       -1.5622791334       -5.5622499265
 H         2.6083950605       -4.8534634158       -7.3791332374
 H         1.4307356311       -3.9496746523       -8.3120870991
 H         0.9695700119       -5.2632358033       -7.2506900977
 H         7.2178143581       -6.9370163625       -1.9878211662
 H         5.7979510733       -7.9549508419       -1.6772444912
 H         5.5862591979       -6.2611428384       -1.6586570255
 H         6.7303819161       -5.9493782249       -5.5290371444
 H         7.7221862702       -5.7270911496       -4.1931520136
 H         6.1338804010       -4.9454080846       -4.2051655102
 H        10.3182804819      -13.3723814541       -3.3442024398
 H         8.7189143696      -12.9774006305       -4.1595829101
 H         8.7692702615      -13.8292311268       -2.6489481472
 H        10.2878023199      -12.7131271194       -0.6892664727
 H         8.7557931699      -11.8125788399       -0.4993724630
 H        10.1934639314      -10.8725104071       -0.5956292223
 H        14.9673086906       -5.6666556037       -2.6448750158
 H        14.6523989033       -7.3612700402       -2.6285636681
 H        13.7650057127       -6.3317001257       -1.5437360588
 H        11.6452604781       -4.8277391705       -2.9216874813
 H        11.9447799349       -4.6265149489       -4.6088502603
 H        13.1732150289       -4.1856597376       -3.3866158939
 H        10.9291792441      -10.6747719570       -9.0149629177
 H        11.7002236918      -10.3037443701       -7.4113955914
 H        12.7367474633      -10.8481476826       -8.8107347327
 H        13.6483658874       -9.0138559562      -10.2981631888
 H        13.1236913240       -7.5775656845      -10.5980620186
 H        12.0693632186       -8.8407640613      -11.0277366562
 Na        9.9543490464       -8.9657176529       -5.7707076303
 Na      -11.9776556626        4.8572974340      -14.1946995823
