232

 C        10.1488562578       -7.4752474740      -10.3207921886
 C        10.5677107370       -8.0092193354       -8.9630754216
 O         9.9140985972       -7.7143058074       -7.9899811010
 C        11.9812431293       -8.8145796886       -8.8254530421
 C        12.6302090122       -8.0396110546       -7.6170196720
 O        12.2326173158       -8.3064712553       -6.4903997913
 C        13.6775999470       -6.8816438790       -7.7133806778
 C        13.5295143298       -5.9487869102       -6.4523122677
 C        13.9984990862       -6.6907395680       -5.1017081498
 O        14.8650903254       -7.5005270694       -5.1801021159
 C        13.2140878807       -6.4082238454       -3.6688456543
 C        12.0553020447       -7.4221106336       -3.7293379146
 O        10.9127279338       -7.0944864478       -4.0005730204
 C        12.3167438868       -8.8924666448       -3.4213606801
 C        11.1818164224       -9.5644351284       -2.6383311694
 C        10.5354001849      -10.7335878310       -3.3852037375
 O        10.6356336378      -10.9768474822       -4.5505553003
 C         9.4241217676      -11.5599477532       -2.5326559862
 C         8.0373537979      -10.8795490213       -2.7082194427
 O         7.4883557673      -10.5704100213       -1.6143670905
 C         7.3572641159      -10.8019593648       -4.0659040736
 C         6.2829412116       -9.7463234305       -4.1452480447
 C         6.8481638261       -8.4168133402       -4.4581459685
 O         7.9136947978       -8.2667238804       -4.9916050284
 C         6.0895161479       -7.1435582029       -3.8004230689
 C         4.5407071421       -7.2677065387       -4.0972746172
 O         4.0563490482       -8.1601857577       -4.7360708720
 C         3.5004516431       -6.1372292015       -3.6777446364
 C         3.0356373861       -5.3961907495       -4.9488171846
 C         1.9748491446       -4.3493549169       -4.6874923011
 O         1.5480090899       -4.1858416529       -3.5525842873
 C         1.6575184971       -3.4732272395       -5.9498725270
 C         0.1234383104       -2.9160166315       -5.8004594145
 O        -0.0956118870       -1.8296207385       -5.4323137071
 C        -1.0378177501       -3.9459327351       -5.9372806492
 C        -2.4781262434       -3.4687272883       -5.4843119566
 C        -3.2213670944       -2.4569332532       -6.4792457002
 O        -2.8442144621       -2.3786618460       -7.6558420249
 C        -4.5917189004       -1.8608992173       -5.9226781357
 C        -5.2105945438       -0.8971541351       -6.9688299936
 O        -4.7381848788        0.2244475732       -6.9410604754
 C        -6.1386504340       -1.3479974647       -8.1136928581
 C        -6.1842631000       -0.2758978180       -9.2187445496
 C        -7.1174917626        0.8133841113       -8.9568026385
 O        -8.1438590166        0.5779413874       -8.3604597409
 C        -6.8286181176        2.2699107734       -9.5126798323
 C        -7.0238426700        2.1344356025      -11.0857270530
 O        -6.4339335214        1.3239345371      -11.7618967704
 C        -7.8763199328        3.1560789947      -11.9186386415
 C        -7.8749716288        2.8433729250      -13.4792502984
 C        -9.1462742921        3.3687032248      -14.1294213072
 O       -10.0353780515        3.9335441287      -13.5806941888
 C        -9.2585191791        3.3293193239      -15.6617186657
 C       -10.6326919071        2.6524808933      -15.8570456186
 O       -11.5977758379        3.3688880784      -15.9073066595
 C       -10.7630450068        1.1182585917      -16.0256413389
 C       -12.2132559186        0.7541870277      -16.4683939667
 C       -13.0587182761        0.6357602106      -15.2544729255
 O       -12.6615456380       -0.1410749335      -14.3982322924
 C       -14.4578377205        1.3801481427      -15.1393160248
 C       -14.5364660335        2.3038466112      -13.8881044204
 O       -13.8455383807        3.3157131508      -13.8579676978
 C       -15.3917987287        1.8858581084      -12.6290111024
 C       -15.1198934211        2.7764544283      -11.4643060119
 C       -15.8319274547        4.0892316539      -11.6205333549
 O       -16.7639819279        4.3315061911      -12.2945333850
 C       -15.0941462294        5.5152925610      -10.9174186573
 C       -13.9791355931        5.9824554453      -11.8302594638
 O       -13.0716303255        5.2506319374      -12.1216050955
 C       -14.1226940249        7.3318797136      -12.6169476048
 C       -14.8177433755        7.2538967118      -14.0249650252
 C       -13.8273799224        7.2282638897      -15.2097621659
 O       -12.7991499839        6.5533254800      -15.1291661422
 C       -14.2414164989        7.8278456338      -16.5761034818
 C       -15.4509948087        6.9060645024      -17.3402208826
 O       -16.3097040492        6.3237302365      -16.7044525090
 C       -15.3097891026        6.8386651457      -18.9270882705
 C       -16.0740098919        5.7968748814      -19.8049817258
 C       -15.3235770129        4.4435180571      -19.7980047013
 O       -14.8425089176        4.0563727362      -18.7519252242
 C       -15.3386938014        3.5051041981      -21.0379439504
 C       -16.6268849553        2.5285819539      -21.0714207735
 O       -16.9471522605        2.0712453669      -22.1792797320
 C       -17.5628808754        2.3647633217      -19.8412653689
 C       -15.2642367933        4.4258702700      -22.3936069397
 C       -14.2032839707        2.4834312124      -20.9087813103
 C       -15.0202743367        9.1146981249      -16.3706221131
 C       -13.0996443619        8.0117769815      -17.5162739145
 C       -16.2228502877        6.5542953176      -10.7002400399
 C       -14.5750033714        5.1041011813       -9.4642146160
 C       -14.7746395478        2.4243291680      -16.3099513358
 C       -15.5429939242        0.3182404341      -15.0393236167
 C        -9.2889977422        4.7889795368      -16.2282684623
 C        -8.0952076329        2.5642442707      -16.4118041214
 C        -7.8795873042        3.3142622331       -8.8196117184
 C        -5.4188234567        2.7755234727       -9.2929595773
 C        -5.6545705511       -2.9121946164       -5.7175954255
 C        -4.2803072953       -0.9789588556       -4.5835155505
 C         2.6820722940       -2.3239648187       -6.1590918560
 C         1.5580645583       -4.3782833511       -7.2195384235
 C         6.3535730182       -7.2196466098       -2.2538015324
 C         6.6572686991       -5.8429855577       -4.2538951506
 C         9.2905879170      -12.9793166140       -3.0608058439
 C         9.7792505297      -11.7697507798       -1.0304883276
 C        14.1984717618       -6.5226878830       -2.5549138755
 C        12.6418447965       -4.9651713760       -3.6327431459
 C        11.6603467504      -10.2818168647       -8.3502628650
 C        12.9431124474       -8.7772544149      -10.0485749190
 H        10.5106623476       -6.4523595526      -10.5722851586
 H         9.0458177329       -7.4379823338      -10.3344067034
 H        10.5592407726       -8.1830748475      -11.0625233600
 H        13.7360506518       -6.2673485813       -8.6890839252
 H        14.6268719752       -7.4528698710       -7.6277386027
 H        12.5191942444       -5.6635436379       -6.2066617592
 H        14.1519997899       -5.1149477650       -6.6658966328
 H        13.3253051334       -9.0650270461       -2.8953749947
 H        12.4021405984       -9.4389126512       -4.3553583020
 H        10.3430916386       -8.9102663502       -2.3298370430
 H        11.5405955302       -9.9083136297       -1.6568359263
 H         6.8729689616      -11.7454658224       -4.2213611005
 H         8.0437292849      -10.7547958103       -4.8952889185
 H         5.7743591316       -9.7799215818       -3.1560224551
 H         5.4826044671       -9.9357071951       -4.8427133174
 H         3.8902693078       -5.3158971747       -3.0153990111
 H         2.6989312054       -6.6000821863       -3.1387799452
 H         2.5730065947       -6.2189065709       -5.5333303069
 H         3.8581883208       -4.8738083997       -5.3915426973
 H        -0.8379756224       -4.9049584219       -5.4998201396
 H        -1.1066235988       -4.3071922133       -6.8912533109
 H        -2.4348536601       -3.0335440554       -4.4424051960
 H        -2.9876865935       -4.4249085055       -5.4879536894
 H        -7.1706741975       -1.5361055575       -7.7170370363
 H        -5.9293593902       -2.4153592815       -8.5446452787
 H        -6.4345402593       -0.8361888807      -10.1280597908
 H        -5.1635435328        0.0341524982       -9.4248237250
 H        -7.4740728261        4.2070054251      -11.8136456369
 H        -8.9306882306        3.0787816815      -11.5285047075
 H        -7.8485783773        1.7719502208      -13.6034485743
 H        -6.9417060973        3.3309473386      -13.8470755781
 H       -10.6237452452        0.4202765782      -15.0914618046
 H       -10.1030345079        0.7508817137      -16.8349215053
 H       -12.3070799937       -0.2198957460      -17.0002329865
 H       -12.6088773053        1.5776910020      -17.1018232083
 H       -15.1309608203        0.8251817463      -12.3213048135
 H       -16.4904488137        2.0213983915      -12.9769822010
 H       -14.0796839525        2.9867132591      -11.3443698731
 H       -15.4879886960        2.3519595779      -10.5280063754
 H       -13.1485188647        7.8709736752      -12.7966592515
 H       -14.6363437608        8.0429565912      -11.9394536139
 H       -15.6465823303        7.9700320278      -14.1565326216
 H       -15.0869438798        6.2122014058      -14.2997201690
 H       -14.2180889169        6.5648046623      -19.0847719389
 H       -15.3841349493        7.8683614593      -19.2446510527
 H       -16.2849085028        6.2745708357      -20.7963132542
 H       -17.0515432607        5.6322499155      -19.2886934618
 H       -17.4646053824        3.0831377334      -19.0323887355
 H       -17.4005420134        1.4856418428      -19.2913504644
 H       -18.5627476228        2.6325505287      -20.1702666035
 H       -14.2248575194        4.6258666956      -22.7450431102
 H       -15.7264766125        5.3877567910      -22.2777735960
 H       -15.7126399574        3.8857065988      -23.2321039442
 H       -14.0883494443        2.0203265285      -21.8533389984
 H       -14.2841299273        1.7430787922      -20.1885842767
 H       -13.2465225266        3.0468048558      -20.7850974675
 H       -16.0054020688        8.9229187028      -16.1298800381
 H       -14.8381634060        9.8054704602      -17.1662619826
 H       -14.6445398462        9.6859581616      -15.5047833632
 H       -12.4990465173        7.1209060092      -17.5137068601
 H       -12.4445580009        8.8329624320      -17.1068737626
 H       -13.4247308551        8.2217807776      -18.5515724598
 H       -16.9688993231        6.3532134232       -9.9337563127
 H       -16.7688952856        6.9345315251      -11.5903697921
 H       -15.7522501878        7.3735450413      -10.2181269673
 H       -14.9705080562        5.6578236343       -8.6049666881
 H       -13.5373531202        5.3978979269       -9.4615647185
 H       -14.6295516024        4.0511364796       -9.2957633993
 H       -15.6268211257        2.8548978136      -15.9903490216
 H       -14.8986387880        1.7575229760      -17.2153415782
 H       -13.9269399133        3.1278054450      -16.4825420036
 H       -15.9393162335       -0.0861167816      -15.9528960686
 H       -16.3982787790        0.6870835862      -14.4990332787
 H       -15.0779964957       -0.5871792665      -14.5224758682
 H       -10.1022720019        5.3249917190      -15.7502470146
 H        -9.5149690272        4.8448413247      -17.3429310494
 H        -8.3935767267        5.2343282891      -16.0454600251
 H        -7.3479062324        3.2418373210      -16.9055385856
 H        -8.5218081447        1.9358518229      -17.2126937948
 H        -7.4404122382        1.9670998614      -15.8214652120
 H        -7.4565473559        4.3720577357       -9.0741539538
 H        -7.8535344941        3.1903694312       -7.7410794405
 H        -8.9170906594        3.1699771363       -9.2144891783
 H        -5.3020490702        3.9507622748       -9.3918687361
 H        -4.6651370643        2.3468207730       -9.9520416630
 H        -5.2100460622        2.4753889562       -8.2487477764
 H        -5.5787313096       -3.6566914223       -6.4855685187
 H        -6.6577840556       -2.6358528351       -5.5973325632
 H        -5.4684487825       -3.3867313528       -4.7375112749
 H        -5.1550816243       -0.4243375340       -4.1936404863
 H        -3.4528027770       -0.3184696506       -4.7580790411
 H        -3.9351486232       -1.6927241317       -3.9635275139
 H         2.7403202397       -2.0693488853       -7.2482303828
 H         3.6960190889       -2.7191282456       -5.9985659241
 H         2.4971083674       -1.3501344312       -5.5431193536
 H         2.5477314656       -4.7682179207       -7.5914649933
 H         1.1061734272       -3.8455877032       -7.9811476151
 H         1.0578923756       -5.3476799525       -6.9602365788
 H         7.4443263780       -7.3173554773       -2.0892981915
 H         5.7435428855       -7.9161894285       -1.7379809744
 H         5.9402332379       -6.2572709603       -1.8482291083
 H         6.2859609869       -5.5536040824       -5.2819116157
 H         7.7393707082       -5.9203196375       -4.1889082723
 H         6.3893725591       -4.9989276655       -3.6748419533
 H        10.2420985979      -13.5195695800       -3.0459575172
 H         8.8992637587      -12.9622971636       -4.0882576845
 H         8.5989217187      -13.5139778920       -2.3519131755
 H        10.6051055608      -12.4847752635       -1.0437360915
 H         8.9327780100      -12.2689952086       -0.5045534749
 H        10.1134800646      -10.8639133834       -0.4997130584
 H        14.7230256655       -5.5398434607       -2.5389900461
 H        14.9787435865       -7.2957920315       -2.7531469500
 H        13.8338094146       -6.6573842268       -1.5957371477
 H        12.3391986511       -4.7610420837       -2.6000159014
 H        11.7783937375       -4.8553637673       -4.3043286024
 H        13.3588178658       -4.1850288950       -3.8832112637
 H        10.6496201842      -10.6055279565       -8.3859921347
 H        12.0407436944      -10.3687178497       -7.3718273130
 H        12.2247510651      -10.9051013340       -8.9720940177
 H        13.9985883208       -8.6601597569       -9.6908309033
 H        12.9232707194       -7.8727213497      -10.7262827043
 H        12.7696693525       -9.6169895908      -10.7795465022
 Na       10.0558887295       -8.7234714836       -5.7179533928
 Na      -11.8917115188        4.8657646141      -14.1574481219
