232

 C        10.3488227938       -7.3543304483      -10.3851486052
 C        10.5985422100       -7.9346460167       -8.9448192778
 O         9.8933417604       -7.6071868314       -8.0204108080
 C        12.0230742284       -8.7468861192       -8.7346892639
 C        12.5991362305       -8.0456869720       -7.5188404366
 O        12.1374596486       -8.3073136775       -6.4247429824
 C        13.6643657903       -6.9387461759       -7.6873913409
 C        13.5624130125       -5.9654265342       -6.4833554441
 C        13.9349713632       -6.7603703691       -5.1970905757
 O        14.8497777164       -7.4778810473       -5.2881502734
 C        13.2354542064       -6.3750679775       -3.8036699861
 C        11.9636914189       -7.4665317021       -3.6716640250
 O        10.8177083001       -7.1567878165       -4.0042115865
 C        12.3808934412       -8.9173052167       -3.4568726159
 C        11.3346367103       -9.7422505821       -2.6082271751
 C        10.4755859423      -10.7473880300       -3.3630494606
 O        10.5107282615      -10.8326061214       -4.5752374136
 C         9.5803211936      -11.6437566656       -2.5148059337
 C         8.0962378438      -10.9360582922       -2.6091482421
 O         7.4315660507      -10.5699286390       -1.6199279561
 C         7.3886697117      -10.8607856942       -3.9792012099
 C         6.2536667753       -9.7736711571       -4.1028037413
 C         6.8245626713       -8.3986090568       -4.4035928174
 O         7.7916514533       -8.1766885573       -5.1138135919
 C         6.0545126946       -7.1055156088       -3.8308877855
 C         4.5282008911       -7.2982366476       -4.1201553972
 O         4.1126584287       -8.1661623141       -4.8823648447
 C         3.6000452012       -6.1579344594       -3.6418660884
 C         3.0743831300       -5.5735158933       -4.9578024850
 C         2.0940770225       -4.4164006375       -4.7130989231
 O         1.6023522904       -4.2021032358       -3.6262428020
 C         1.5359529693       -3.4950557431       -5.9197623157
 C         0.0386390247       -2.9037046002       -5.6628574481
 O        -0.0690108457       -1.6821791560       -5.4728218719
 C        -1.1333038998       -3.8623882977       -5.9144413894
 C        -2.4153936331       -3.3922024082       -5.3683749735
 C        -3.2916438824       -2.5976934437       -6.4319408151
 O        -2.9748821888       -2.5695632722       -7.6291703375
 C        -4.5381301840       -1.9533867307       -5.9327680986
 C        -5.0087410517       -0.8131643666       -7.1116084317
 O        -4.7394061186        0.3635264098       -7.0710861789
 C        -5.9924655161       -1.3333473872       -8.1219193128
 C        -6.1864152543       -0.3348450335       -9.3088476821
 C        -7.0662755981        0.8673693646       -8.9454150198
 O        -8.1105708420        0.6743631487       -8.3336950142
 C        -6.8073935209        2.2816741992       -9.5901074713
 C        -7.0331389883        2.1621145993      -11.1271244034
 O        -6.4525205084        1.2729990391      -11.7124957216
 C        -7.9660468027        3.2034523718      -11.8288011958
 C        -7.7566395151        3.0530066454      -13.3576265558
 C        -9.0109297222        3.4163180683      -14.0784088465
 O        -9.9151536812        3.8407777041      -13.3916977377
 C        -9.2075866614        3.2898412593      -15.7382002623
 C       -10.6364930311        2.6597696535      -15.8668426604
 O       -11.6569627074        3.3416938268      -15.7685768003
 C       -10.7735431765        1.1871796971      -15.9835508835
 C       -12.2121945009        0.8849588102      -16.4480072725
 C       -13.1625010206        0.6093564638      -15.1866544017
 O       -12.8036462772       -0.1439214019      -14.3361300231
 C       -14.5795990957        1.3665018730      -15.0774187221
 C       -14.5111430877        2.3192163743      -13.8261497258
 O       -13.8986046087        3.3817577444      -13.8214394271
 C       -15.3559254032        1.9500281598      -12.6516612545
 C       -15.0399851121        2.8835857343      -11.5160971347
 C       -15.7335052741        4.3271182382      -11.6323649457
 O       -16.7795223250        4.3963162033      -12.2137732357
 C       -15.0982279272        5.5084939247      -10.8881178584
 C       -14.0009430021        5.8991961979      -11.8717569128
 O       -13.0366703477        5.1552061504      -11.9857228411
 C       -13.9970574686        7.2495797322      -12.6057177391
 C       -14.7597198387        7.1760295329      -13.9142769874
 C       -13.9010304581        7.0451408199      -15.2459576273
 O       -12.7165991135        6.7657926834      -15.2145838525
 C       -14.4024531793        7.8232579992      -16.6422106103
 C       -15.5172371261        6.8534223949      -17.3946073818
 O       -16.4298937541        6.4414506244      -16.7702912216
 C       -15.1903668857        6.6445584057      -18.8768420099
 C       -16.1306390460        5.7905994129      -19.7793717385
 C       -15.4507610100        4.3793485857      -19.7581474753
 O       -14.9308100610        3.9952258983      -18.7587988546
 C       -15.3947006934        3.5086213100      -21.0315781350
 C       -16.7394754090        2.6967852607      -21.2018772564
 O       -16.9408211098        2.1368639096      -22.2262401765
 C       -17.6868841460        2.4822927119      -20.0049178046
 C       -15.2219021874        4.2992232392      -22.3145824002
 C       -14.1244363977        2.5960851221      -21.0446410267
 C       -15.0709460150        9.2181228542      -16.3641336522
 C       -13.0728507546        7.9735156904      -17.5006286656
 C       -16.2343223720        6.5037533248      -10.7626473542
 C       -14.5646072752        5.1001115384       -9.4740313379
 C       -14.7984189642        2.2978539642      -16.3304838946
 C       -15.7272837823        0.3581415470      -15.0249687482
 C        -9.3362046330        4.6256599683      -16.4080303339
 C        -8.0560705875        2.4131965409      -16.3396360371
 C        -7.8002501002        3.2169039045       -8.8844881949
 C        -5.3076804733        2.7361849897       -9.4311731051
 C        -5.6562942316       -2.9696404569       -5.6732870936
 C        -4.3279408678       -1.0516997993       -4.7066211551
 C         2.5414477898       -2.3318077919       -5.9852758974
 C         1.5582613439       -4.3897049395       -7.2164177499
 C         6.3579313377       -7.3802471024       -2.2633416715
 C         6.6620639580       -5.8268409889       -4.3400924300
 C         9.3843356838      -12.9912403350       -3.2419571470
 C         9.9164512568      -11.6085788451       -1.0330582045
 C        14.1657205120       -6.6855008805       -2.5663110121
 C        12.8076775140       -4.8597498394       -3.7270582957
 C        11.6144775498      -10.2575708661       -8.3183860123
 C        13.0320724908       -8.8027632458       -9.8810925446
 H        11.0338075924       -6.5481765981      -10.7318690705
 H         9.2921697074       -6.9147565916      -10.3206886320
 H        10.4265837943       -8.1349158639      -11.1091109552
 H        13.5218184184       -6.3327140358       -8.6501191613
 H        14.6485226010       -7.4505495914       -7.7591390127
 H        12.5768352893       -5.4183740925       -6.3318418107
 H        14.3894546421       -5.2528382024       -6.6468855494
 H        13.4190614744       -9.0118343381       -3.0552129470
 H        12.4736035357       -9.3450441165       -4.5237901737
 H        10.6038266273       -9.0302539587       -2.1376339416
 H        11.8076515516      -10.1499893494       -1.6846749498
 H         7.0115294638      -11.8850575787       -4.2459417709
 H         8.0503136305      -10.6904614371       -4.8208253217
 H         5.6644027201       -9.7918282409       -3.2113723308
 H         5.4411276882       -9.9098547025       -4.9126964206
 H         4.0906437913       -5.3617629797       -3.0248487147
 H         2.6991321375       -6.5227626512       -3.0550642700
 H         2.5883060700       -6.4657223832       -5.3511007921
 H         3.8445126635       -5.1310625180       -5.5356946351
 H        -0.9286627352       -4.8338196152       -5.5700418960
 H        -1.1639858632       -4.1562887408       -6.9642157447
 H        -2.1267350025       -2.7056791112       -4.5631756683
 H        -2.8958658415       -4.2834007863       -4.9408172043
 H        -6.9757679845       -1.3702091952       -7.5698461400
 H        -5.9064249351       -2.3226934712       -8.3703371467
 H        -6.5469869836       -0.9029710833      -10.1754350434
 H        -5.1689814430       -0.0432352961       -9.6436497749
 H        -7.7695305689        4.3136865989      -11.5264709235
 H        -8.9431142902        2.8669842964      -11.5176405661
 H        -7.5409800647        1.9961336047      -13.5423869257
 H        -6.8657958052        3.7034313950      -13.4949628363
 H       -10.7243984690        0.6750638693      -15.0153162053
 H       -10.0834368393        0.7481277277      -16.6725149498
 H       -12.2394678078       -0.0984471934      -16.9408629157
 H       -12.5688139081        1.6811304397      -17.1726327269
 H       -15.1605424641        0.8247393835      -12.3857145921
 H       -16.3475742768        2.1258594534      -12.9596873051
 H       -14.0278493666        3.0111180274      -11.3494948156
 H       -15.4319532800        2.4530844005      -10.5824732673
 H       -13.0216060520        7.6721101118      -12.7712556864
 H       -14.5168115421        7.9900157754      -11.9922848433
 H       -15.2788994072        8.1256957368      -14.0389788871
 H       -15.4653636707        6.3179877272      -14.0024032674
 H       -14.1263599982        6.3827737875      -19.0929942331
 H       -15.2568738497        7.7264874387      -19.1683024396
 H       -16.0619581495        6.2977161645      -20.7696410230
 H       -17.1655571697        5.8970315929      -19.4273115369
 H       -17.6068429461        3.2125695969      -19.1914909441
 H       -17.2727000323        1.6429111138      -19.4788708148
 H       -18.7215751829        2.5761523057      -20.1877313667
 H       -14.1765313044        4.7345969396      -22.3634429879
 H       -15.9265422186        5.1094523652      -22.4628592067
 H       -15.2181377706        3.5389124518      -23.1012909546
 H       -13.8962178316        2.1400225196      -21.9912596723
 H       -14.1961103149        1.7393211279      -20.2645943112
 H       -13.2386653834        3.2498348435      -20.7774984718
 H       -16.0585705561        9.1283428886      -15.9759046780
 H       -14.9936276449        9.7256204623      -17.3059467750
 H       -14.5418951005        9.8828250573      -15.7038777686
 H       -12.5426266252        7.0219768382      -17.6873853518
 H       -12.3968070535        8.5670128833      -16.8713470753
 H       -13.2922081486        8.4875100651      -18.4621920356
 H       -17.1564933903        6.1381669845      -10.2528153783
 H       -16.5417898360        6.9186004299      -11.6957717923
 H       -16.0057598051        7.3238957028      -10.0593893754
 H       -14.4633635153        5.9556057669       -8.7873503840
 H       -13.5433097652        4.9363260087       -9.6593898646
 H       -15.0462777428        4.2102594103       -9.0443087416
 H       -15.7900703832        2.7590932946      -16.0863108784
 H       -14.7840794655        1.6157297079      -17.2255350590
 H       -14.0130369394        2.9623464296      -16.4172162114
 H       -15.9194301140       -0.0916680756      -16.0145763185
 H       -16.6762510440        0.8206184450      -14.7372939823
 H       -15.4964888346       -0.5294014430      -14.3794237373
 H       -10.0014230139        5.1653829874      -15.7609626664
 H        -9.9088176918        4.6121913359      -17.3602911670
 H        -8.3641427558        5.1649626910      -16.5715611248
 H        -7.1274656397        3.0389758762      -16.5221123326
 H        -8.3133466883        2.0361008810      -17.3016851373
 H        -7.6652999634        1.6209973472      -15.7154734475
 H        -7.6747102810        4.2267330672       -9.1749820932
 H        -7.6228186058        3.0887570859       -7.7387961800
 H        -8.8292932420        2.8236251877       -9.1376897145
 H        -5.0913294194        3.7931535491       -9.6028638842
 H        -4.7674470755        2.2196883968      -10.2295117631
 H        -4.8904827691        2.3979245759       -8.4206846200
 H        -5.5406657238       -3.6933004188       -6.4719071531
 H        -6.6536134518       -2.6452450532       -5.6720221340
 H        -5.5801066965       -3.5113618440       -4.7180276126
 H        -5.2064337066       -0.6264582890       -4.4069063050
 H        -3.5855609992       -0.3146307247       -4.9587710218
 H        -3.9266669139       -1.7465707383       -3.8970167523
 H         2.4750965463       -1.8986397980       -6.9846141817
 H         3.5439196304       -2.7884206263       -6.0642054472
 H         2.5111357123       -1.5422347623       -5.2132991390
 H         2.5740440952       -4.4608969651       -7.6997902601
 H         0.8713160039       -3.9635592564       -8.0140633624
 H         1.4072012577       -5.4657132664       -6.9691019198
 H         7.3898345617       -7.4245122251       -2.1273941452
 H         5.7758429559       -8.2748711491       -1.9540353912
 H         5.8395136549       -6.6033230799       -1.6253718202
 H         6.2815901832       -5.4915197638       -5.3080703083
 H         7.7915685868       -5.8053327760       -4.1787468569
 H         6.2917536673       -5.0175236832       -3.7048560737
 H        10.1377610134      -13.6887291657       -2.9994538832
 H         9.4697542223      -12.8091830320       -4.3236780183
 H         8.4156543215      -13.4671800471       -2.8925141319
 H        10.9859669838      -11.7491436641       -0.8004635581
 H         9.3623369356      -12.3284212608       -0.4806885740
 H         9.6899681525      -10.5987098213       -0.7707352641
 H        14.8207041377       -5.8598365560       -2.2922594763
 H        14.8089154864       -7.5725958404       -2.7196853071
 H        13.5444040272       -6.8597879769       -1.6417112393
 H        12.7062855792       -4.5534425105       -2.6642003488
 H        11.9664708513       -4.5737412117       -4.3060187646
 H        13.6471902383       -4.2354084946       -4.1313011877
 H        10.5478939525      -10.3336622709       -8.4582753203
 H        11.8633403905      -10.4550003643       -7.3231466240
 H        12.0398360961      -10.9720817924       -9.0277967963
 H        14.0346652636       -8.9071859586       -9.4573138605
 H        13.1231923762       -7.8172070187      -10.3848086345
 H        12.8494177110       -9.4839693880      -10.7203414100
 Na       10.1621422848       -8.6067574998       -5.6355342536
 Na      -12.0664229206        4.7799657666      -14.0548650548
