232

 C        10.7822832686       -6.6997903647      -10.2540371565
 C        10.7951244479       -7.7534446415       -9.0579641331
 O         9.9192464713       -7.5638837253       -8.2094255394
 C        11.9699580503       -8.7363317195       -8.6884014357
 C        12.6274761096       -7.8793797943       -7.4874671748
 O        12.2516401750       -8.1266940097       -6.3410098743
 C        13.7071472295       -6.8801739879       -7.7154587146
 C        13.9084641194       -5.9845978729       -6.5691901385
 C        14.1209645945       -6.7556516357       -5.1662006226
 O        14.8579567210       -7.7310085298       -5.1126366501
 C        13.4741175557       -6.4133291536       -3.8153831211
 C        12.3972964353       -7.7340683583       -3.8188082364
 O        11.2247749892       -7.3412528677       -3.9652125417
 C        12.7219317888       -9.1601266259       -3.5236202917
 C        11.7113065984       -9.8379763799       -2.4849977746
 C        10.4848422359      -10.4207840095       -3.1698210189
 O        10.1605300516      -10.0025694778       -4.2694242276
 C         9.5900397112      -11.5778111365       -2.6530556930
 C         8.1015334781      -11.0431867197       -2.7431366223
 O         7.7012250752      -10.4050941562       -1.8326153512
 C         7.3534593969      -11.1307062195       -4.0828334441
 C         6.2542444697       -9.9654860575       -4.1493976201
 C         6.7379877412       -8.5942075845       -4.5189176697
 O         7.6996947269       -8.4166405314       -5.2941482876
 C         6.1325526590       -7.3833777580       -3.8265683368
 C         4.6160703134       -7.3158166054       -4.3131768788
 O         4.2563748240       -8.2483646603       -5.0647143298
 C         3.5787743389       -6.2358408161       -3.8974830238
 C         2.8471235047       -5.7126199320       -5.1408923006
 C         1.8583318786       -4.5783917891       -4.7966896995
 O         1.5410648583       -4.4252563315       -3.6710606018
 C         1.5835487388       -3.4411237433       -5.8698566851
 C         0.1508327684       -2.7827572746       -5.5510885496
 O         0.0904404711       -1.5743395384       -5.2781570535
 C        -1.1619271932       -3.7490586162       -5.3940289948
 C        -2.4498854571       -2.9785104517       -5.1988327320
 C        -3.5089056168       -2.8361265203       -6.4234451341
 O        -3.4533486744       -3.4496560839       -7.4405971212
 C        -4.7620142811       -1.7795085993       -6.0278094873
 C        -4.9248983453       -0.9359773444       -7.3281202416
 O        -4.4062639852        0.1524883719       -7.3353753158
 C        -5.6875358844       -1.4566356883       -8.4705467520
 C        -5.9877273373       -0.4472534105       -9.5373175283
 C        -6.7420226391        0.8121687534       -9.0573503969
 O        -7.5792146419        0.6757418230       -8.1580505111
 C        -6.5041607849        2.1782184203       -9.6671677457
 C        -6.8900336209        2.2368193427      -11.1604300569
 O        -6.5846353981        1.3369736946      -11.9257935878
 C        -7.8471399769        3.4049585242      -11.6566512936
 C        -7.7972987694        3.3667952168      -13.1741744725
 C        -9.0756962034        3.5512241800      -13.9795806080
 O        -9.9323811347        4.3353093081      -13.5477385848
 C        -9.2812303702        2.9599703748      -15.4217925957
 C       -10.7944066794        2.4286771200      -15.5203481323
 O       -11.6918586800        3.2607722047      -15.6260413695
 C       -11.0815949628        0.9172530050      -15.8514540001
 C       -12.5391529591        0.6168473231      -16.2002067928
 C       -13.4777228776        0.5864995258      -15.0143041861
 O       -13.1937731442        0.0968110651      -13.9527963078
 C       -14.8716472751        1.3847706854      -15.1079204933
 C       -14.8305458153        2.3706420327      -13.8804506797
 O       -14.3922041438        3.4731422884      -14.1052281815
 C       -15.3311732342        1.9638886630      -12.5012337095
 C       -15.0243264493        2.9383989330      -11.3466215157
 C       -15.6905570213        4.3167288493      -11.5119722982
 O       -16.7259242988        4.4741221381      -12.1994731330
 C       -15.1118159634        5.6406940655      -10.7923258854
 C       -13.8592295800        5.9611046425      -11.7377149599
 O       -12.8126364069        5.2893963726      -11.6188847769
 C       -13.8818619187        7.1097060477      -12.7557191841
 C       -14.6552932740        6.8021343029      -14.1373466582
 C       -13.9001158494        7.0029021504      -15.3743424101
 O       -12.8787963479        6.3473457000      -15.5515628718
 C       -14.3285239690        7.8971537663      -16.6087983382
 C       -15.3930102752        6.9460243113      -17.4374426725
 O       -16.4235898174        6.6443898094      -16.8832037520
 C       -15.0969138837        6.6177965790      -18.8835958121
 C       -16.1788859062        5.5924983811      -19.4934901005
 C       -15.5651578928        4.2239782711      -19.6622961756
 O       -15.2348441911        3.6411754405      -18.6389195659
 C       -15.5253397633        3.6560614043      -21.1446553093
 C       -16.9656281869        2.8009073564      -21.5469735534
 O       -16.9837179940        2.3213225487      -22.6485085460
 C       -18.0821568419        2.7201550532      -20.5734468214
 C       -15.1047745333        4.7536506010      -22.1399374097
 C       -14.5065236085        2.4680303342      -21.3725799494
 C       -15.1582842604        9.1616133573      -16.1214515482
 C       -13.0532883938        8.5166036566      -17.3897693441
 C       -16.1148279050        6.7230928117      -10.8844557821
 C       -14.7232242406        5.2408673243       -9.2830847838
 C       -15.1457517151        2.1128975295      -16.4440410162
 C       -15.9323649090        0.3027442858      -14.9986539992
 C        -9.0207937852        4.3722755269      -16.3079650669
 C        -8.3069330558        1.9120030328      -15.7901338258
 C        -7.3058288357        3.1921733436       -8.8830103020
 C        -4.9372955661        2.4282769292       -9.5778940119
 C        -6.0082749540       -2.7996128332       -5.7010283578
 C        -4.4728140669       -0.9049696110       -4.7985720114
 C         2.6487471653       -2.3505853034       -5.8042632702
 C         1.5337256500       -4.0278388672       -7.2986212471
 C         5.9982820800       -7.4265691107       -2.2678685676
 C         6.9088097098       -6.0931408685       -4.2419763104
 C         9.9240899935      -12.8435660403       -3.4741547810
 C         9.9592164010      -11.6936395432       -1.0873043938
 C        14.4924313870       -6.4946935321       -2.6095613296
 C        12.6992001044       -5.1531393102       -3.6239001503
 C        11.4460625078      -10.0631454604       -8.0256478034
 C        12.9404977773       -9.1371513937       -9.8944826883
 H        11.7848855526       -6.3580689811      -10.5721592283
 H        10.0992912159       -5.8787263769       -9.9568522807
 H        10.3854681428       -7.2377566805      -11.1112799461
 H        13.4815798438       -6.3313186433       -8.6964682840
 H        14.6100375795       -7.5222765152       -7.9579719565
 H        13.0566913711       -5.3338275976       -6.3925118406
 H        14.7885094581       -5.3803545566       -6.6167068085
 H        13.7428514809       -9.1618144848       -3.1460537860
 H        12.7813239383       -9.7498314933       -4.5254038664
 H        11.3832081483       -9.0847207090       -1.7464484239
 H        12.2730054432      -10.5616197027       -1.8807787385
 H         7.0177356358      -12.0768786676       -4.5018976133
 H         8.0785543973      -10.8703418484       -4.8348283734
 H         5.8120120075       -9.8946813889       -3.2150971959
 H         5.3680166377      -10.2904635493       -4.7747759424
 H         4.1028029843       -5.3832179869       -3.4536203349
 H         2.9207314067       -6.8028578463       -3.1889608748
 H         2.2639234852       -6.5497949875       -5.5507031395
 H         3.5704492479       -5.3330113981       -5.8593157403
 H        -0.9545514977       -4.5300770788       -4.7619802455
 H        -1.2891801312       -4.3257835655       -6.2766500799
 H        -2.1106515305       -1.9585281534       -4.8822397863
 H        -3.0922686365       -3.3629822018       -4.3691672039
 H        -6.6667930050       -2.0155767337       -8.1802899114
 H        -5.0872958200       -2.2539820954       -8.8503641811
 H        -6.5833726313       -0.8939122455      -10.3228404030
 H        -5.0080828073       -0.2804997960      -10.0457196251
 H        -7.5090151805        4.3492162388      -11.0938986699
 H        -8.9239346104        3.2048956220      -11.4380493531
 H        -7.3215815730        2.3991249581      -13.3359963820
 H        -7.1962272560        4.2228476486      -13.5123314377
 H       -10.7949334197        0.2113563320      -15.0311906075
 H       -10.6473720873        0.6576371714      -16.8625667373
 H       -12.5589690433       -0.3612077528      -16.7199589136
 H       -12.8293119855        1.4001119688      -16.9758859160
 H       -14.7468984061        0.9707122051      -12.2231713416
 H       -16.4125150850        1.8297628088      -12.7172479986
 H       -13.9965766969        3.1486270294      -11.2521514854
 H       -15.2177322167        2.5592113300      -10.3419598468
 H       -12.8147093328        7.2894637014      -12.9915289088
 H       -14.4212579660        8.0299978655      -12.4157470605
 H       -15.5986433839        7.3670327773      -14.1799550172
 H       -14.9188778447        5.7286489353      -13.9822208027
 H       -14.0595122615        6.2832422733      -18.9964845281
 H       -15.0769845245        7.5675682404      -19.4535226650
 H       -16.6456440934        6.1131631607      -20.3530776366
 H       -16.9947328072        5.5801605103      -18.7323514669
 H       -18.8013725524        3.5117561545      -20.8236973461
 H       -17.8067552576        2.8776539353      -19.4918856680
 H       -18.7653398090        1.8703216966      -20.6622248282
 H       -14.2629255817        5.3404873935      -21.7088529509
 H       -15.9002411062        5.4305596075      -22.4723202084
 H       -14.7954143638        4.1736861396      -22.9960483097
 H       -14.7040426812        1.9418356688      -22.3091438992
 H       -14.7356682609        1.7535191580      -20.5869817756
 H       -13.5217772750        2.7224182508      -21.2940563851
 H       -16.1364472065        8.8202193472      -15.6874748326
 H       -15.4817153134        9.7393234407      -16.9861076614
 H       -14.6405498835        9.7458627807      -15.3854902715
 H       -12.2245300129        7.7676519239      -17.3727218746
 H       -12.6645586902        9.3859800083      -16.8762814731
 H       -13.3122855172        8.8581788445      -18.3952947769
 H       -16.8818892525        6.5649640202      -10.1121806115
 H       -16.6132452050        6.7801310634      -11.7999282882
 H       -15.8118425025        7.7736311363      -10.6743223361
 H       -13.6795534344        5.3233739853       -9.0548165433
 H       -15.0305790346        4.2303103002       -9.0790079210
 H       -15.3922656437        5.8458769998       -8.6544234606
 H       -16.1522855200        2.7074582500      -16.2967458815
 H       -15.2022703910        1.3458214584      -17.1908140695
 H       -14.3045003032        2.7354002494      -16.6442951189
 H       -16.0312741761       -0.1998636202      -15.9751564523
 H       -16.9414573515        0.6744607986      -14.7575398876
 H       -15.8293817553       -0.3822253805      -14.1943331686
 H        -9.8544453468        4.9879897654      -16.5079002997
 H        -8.6304406241        4.1727728842      -17.2503901988
 H        -8.2322225966        4.9323811040      -15.6936446668
 H        -7.3810954064        2.2813099788      -16.2384291290
 H        -8.6608731987        1.3416884341      -16.6155892786
 H        -8.1103436929        1.1734117319      -14.9777935969
 H        -6.8269688445        4.1196282621       -9.1299163547
 H        -7.2594579871        2.9794051330       -7.7441271021
 H        -8.3905983652        3.3664480945       -9.2298429346
 H        -4.6295373088        3.4288183274       -9.7522406586
 H        -4.4172784553        1.6837550864      -10.2849733680
 H        -4.6598423736        2.3640668719       -8.4716259898
 H        -6.1620154248       -3.5859181792       -6.4350421359
 H        -6.9116528256       -2.2004539019       -5.7785853762
 H        -5.9636580025       -3.3580121146       -4.7737912640
 H        -5.3114091846       -0.3301401311       -4.6857093418
 H        -3.6729705742       -0.2832921413       -4.9655599334
 H        -4.5425770707       -1.4997816807       -3.8688361322
 H         2.3460283542       -1.5169169217       -6.4768846417
 H         3.7337188361       -2.6416589422       -6.0390624004
 H         2.7265697791       -2.1044787879       -4.7542343093
 H         2.2846878585       -4.7114180155       -7.5762563406
 H         1.4362556471       -3.2330644872       -8.1353926438
 H         0.6112043583       -4.5856868193       -7.3630546078
 H         6.9354180850       -7.3170897040       -1.7658244023
 H         5.6425837735       -8.4902184617       -2.0893162629
 H         5.2910695503       -6.6597947681       -1.8864344220
 H         6.9824164515       -6.0071440813       -5.2809367140
 H         7.9170445068       -6.2266428561       -3.8148040784
 H         6.4671030287       -5.1666419712       -3.7956494496
 H        10.9892704331      -13.0020004888       -3.5975271058
 H         9.5818749723      -12.7391869217       -4.5241198484
 H         9.5666922017      -13.6947967736       -2.8899246630
 H        10.7071208789      -12.5001009438       -0.7987202155
 H         9.0369221041      -12.0360178568       -0.5973629076
 H        10.3013174650      -10.7470931098       -0.6434928774
 H        15.0405670531       -5.6282439818       -2.3997987820
 H        15.1710079366       -7.3036954356       -2.6204982742
 H        13.8535863667       -6.6511030652       -1.6805359101
 H        12.3245414383       -5.2650333963       -2.6013346848
 H        11.8692905656       -5.0148587643       -4.2572144206
 H        13.2779375662       -4.2119811591       -3.6915657726
 H        10.5380191380       -9.8386947650       -7.5264033917
 H        12.1468540373      -10.3377898396       -7.3038986364
 H        11.2734443932      -10.8173926034       -8.7742460935
 H        13.5964168952       -9.9322678336       -9.5435792877
 H        13.4130321759       -8.3394872965      -10.5405620321
 H        12.3835314246       -9.8882940411      -10.5239124684
 Na        9.8245919385       -8.0690981046       -5.9746168560
 Na      -12.1883664127        4.8419715985      -13.8172211632
