232

 C        10.9033210841       -6.7144910726      -10.2315819207
 C        10.8147275559       -7.6205780673       -9.0671139205
 O         9.8698888909       -7.5419664280       -8.3176599555
 C        11.9871045105       -8.7592312229       -8.6573013494
 C        12.6815612929       -7.9571229241       -7.5099396630
 O        12.1581343282       -7.9996729040       -6.4133147860
 C        13.8740806136       -6.9536131706       -7.6603275844
 C        13.9953930777       -5.9668646538       -6.4590694400
 C        14.2333185570       -6.7369642104       -5.1211733586
 O        14.9466947198       -7.7575246940       -5.1541891137
 C        13.3858874774       -6.4698910495       -3.7570178282
 C        12.4380071588       -7.6897718533       -3.6459763090
 O        11.2997713263       -7.5184491898       -4.0231524384
 C        12.9258552021       -9.1934645252       -3.3257857821
 C        11.7522144728       -9.8583613583       -2.4905965718
 C        10.5383741365      -10.2667168496       -3.2991305128
 O        10.1892161192       -9.7836878350       -4.3914187518
 C         9.6263045877      -11.5036131621       -2.6767754101
 C         8.1894384767      -10.8961047885       -2.7502059166
 O         7.6806553541      -10.3730582015       -1.8067075658
 C         7.3898626919      -11.0283143162       -4.1118895016
 C         6.2474586796      -10.0620773644       -4.0744076947
 C         6.8203484823       -8.7073387235       -4.4493618596
 O         7.7065409632       -8.6485451194       -5.3130954210
 C         6.1169007671       -7.4812642009       -3.8166924564
 C         4.5288694532       -7.3397739014       -4.3806243248
 O         4.2192592776       -8.1947335512       -5.1602275470
 C         3.6156355147       -6.2256026544       -3.9909321242
 C         2.8415456586       -5.7211495757       -5.2604166378
 C         1.8654057200       -4.5443155259       -4.8133509533
 O         1.4234745529       -4.5417152624       -3.6845966029
 C         1.4653739978       -3.4788254436       -5.8335455144
 C         0.1781789857       -2.7140798370       -5.4967129162
 O         0.1892840481       -1.5749880715       -5.2380871377
 C        -1.1131040689       -3.5295210818       -5.4123592557
 C        -2.4445444225       -2.8948545580       -5.2312307733
 C        -3.5039667664       -2.8554277119       -6.2889521558
 O        -3.4313418443       -3.6105558745       -7.2051713652
 C        -4.7706870529       -1.8831165655       -5.9989466311
 C        -4.9728533577       -1.0191980802       -7.3185717347
 O        -4.3446746238        0.0302922145       -7.3731520671
 C        -5.7873798823       -1.5385935362       -8.6100581314
 C        -5.9537274090       -0.4911009987       -9.7392810315
 C        -6.6542479447        0.7392665217       -9.0823957834
 O        -7.4137662851        0.6088626933       -8.1584081966
 C        -6.3624695523        2.2805350969       -9.6330307386
 C        -6.9160511274        2.2574757405      -11.1166906431
 O        -6.5485224459        1.4111202639      -11.9068328640
 C        -7.7798133841        3.3971159014      -11.6985301085
 C        -7.8196240472        3.2814705461      -13.2515454617
 C        -9.1090100030        3.6492734034      -13.8982780717
 O        -9.9223934111        4.4033213354      -13.3807757058
 C        -9.3217259118        2.9033881433      -15.3180304019
 C       -10.8409452482        2.4330428918      -15.5676547727
 O       -11.7618924545        3.2010784910      -15.5622899829
 C       -11.0846160812        0.9653229279      -15.7585278042
 C       -12.5969459645        0.6274503334      -16.1741557466
 C       -13.4766860698        0.7527716286      -14.9403104651
 O       -13.1098502274        0.1374327275      -13.9304123115
 C       -14.9552410575        1.3565062160      -15.0163434617
 C       -14.9617733309        2.4756365753      -13.8882947603
 O       -14.5009893717        3.5684940787      -14.0872740969
 C       -15.3573233933        2.0340352903      -12.4318342701
 C       -14.9561015235        3.0227609453      -11.3572029299
 C       -15.6443012075        4.3629076952      -11.5833664762
 O       -16.6785062542        4.4902924133      -12.1597100253
 C       -15.1226525887        5.6888602215      -10.8508248553
 C       -13.8988062981        6.0429404637      -11.7499091873
 O       -12.8842292784        5.3165371780      -11.6772460586
 C       -13.8305401626        7.1200627381      -12.8941294320
 C       -14.7094935559        6.6349881191      -14.1810411429
 C       -13.8073260808        6.9226013383      -15.4951706022
 O       -12.8424303145        6.1981447657      -15.6535476788
 C       -14.3233809262        7.9417923737      -16.5476416802
 C       -15.3801907705        7.0158388590      -17.3805530153
 O       -16.4014724447        6.5949083037      -16.8167969855
 C       -15.0618811678        6.6361245896      -18.7994535422
 C       -16.1246518303        5.6321952497      -19.3978216769
 C       -15.6471188190        4.2406867547      -19.7348672256
 O       -15.2485166572        3.5094224434      -18.8027923599
 C       -15.5801940524        3.5973681647      -21.1981396969
 C       -16.9739241226        3.0225044328      -21.6452334813
 O       -17.0508798380        2.4298469736      -22.7070568241
 C       -18.2085743220        2.8201744871      -20.7286546104
 C       -15.1423207166        4.7768957944      -22.0856279533
 C       -14.4846262796        2.4871032601      -21.3154988251
 C       -15.1589536602        9.1124141698      -15.9205397116
 C       -13.1643371138        8.5074355327      -17.3627409052
 C       -16.2901745830        6.6976216896      -10.8562003529
 C       -14.6785472247        5.2053243414       -9.4267982081
 C       -15.1091068401        2.0962571322      -16.3980121001
 C       -16.0474594037        0.2770832079      -14.7791647918
 C        -9.1546910165        4.0751716508      -16.3228993001
 C        -8.3192478068        1.7774952566      -15.6372050706
 C        -7.2011701896        3.2011705027       -8.6731246624
 C        -4.8336902823        2.4734091227       -9.7400418076
 C        -6.0895785362       -2.6405982401       -5.7450212871
 C        -4.5352601932       -0.9087083262       -4.8455593633
 C         2.6510210751       -2.3946583767       -5.7793854236
 C         1.3990601367       -3.9652297739       -7.3294886450
 C         5.9485445763       -7.5615302950       -2.2496714473
 C         6.8352988577       -6.1488040244       -4.2034275302
 C         9.9253390414      -12.7358379325       -3.4520104010
 C         9.9319678243      -11.7709795318       -1.1633526939
 C        14.4638558027       -6.5999255322       -2.7301035137
 C        12.7038199760       -5.0808510962       -3.7097067810
 C        11.3765892440      -10.0025729450       -8.0228755008
 C        12.7612980534       -9.0507422504       -9.9024032709
 H        11.9648451288       -6.3741092436      -10.2827012321
 H        10.2427194289       -5.9093105552      -10.0029316616
 H        10.6715183368       -7.1833358945      -11.2544372647
 H        13.6188951558       -6.4338977777       -8.5852909151
 H        14.8803029444       -7.4647964306       -7.8902950527
 H        13.1140354921       -5.3042337889       -6.2630054531
 H        14.9328701890       -5.2929150646       -6.5275186164
 H        13.8958894424       -9.2767054398       -2.7995752438
 H        13.0669699651       -9.7832731667       -4.3009740144
 H        11.4864675802       -9.2607630125       -1.5763313924
 H        12.1589652454      -10.8251635277       -2.0911865052
 H         6.9305346845      -12.0522614284       -4.1494995119
 H         7.8789951493      -11.0000495135       -5.1088885393
 H         5.6922330328      -10.1925684670       -3.1087869479
 H         5.5004875661      -10.3417214201       -4.8435339981
 H         4.2020809472       -5.3966521625       -3.5564206860
 H         2.8753609724       -6.7260097621       -3.2614832064
 H         2.2173160891       -6.4988342126       -5.6263305836
 H         3.5637712727       -5.4191312756       -6.0793688214
 H        -0.9471960207       -4.1369110032       -4.5451447658
 H        -1.1489603726       -4.3532694089       -6.1321975115
 H        -2.2732327523       -1.9329889170       -4.7904026206
 H        -2.9584235976       -3.4875232155       -4.4160167354
 H        -6.7088715204       -1.9570464371       -8.4571795653
 H        -5.1571632729       -2.3415567764       -8.9401215367
 H        -6.6399707387       -0.8781502399      -10.5236069415
 H        -4.9918888215       -0.3192058514      -10.2877117195
 H        -7.3811911159        4.3004810811      -11.3104700445
 H        -8.8530262505        3.2952551792      -11.3298642854
 H        -7.6108965687        2.1736114465      -13.3950429812
 H        -7.0084515818        3.8953647050      -13.6459356516
 H       -10.9736245483        0.5075809740      -14.8366462232
 H       -10.4842131582        0.5113248783      -16.5461515243
 H       -12.6916881728       -0.4309840004      -16.5847476988
 H       -12.9140476769        1.3179487808      -16.9606097826
 H       -14.8749620084        1.1764343303      -12.1775703873
 H       -16.4396585415        1.9279730152      -12.5645611613
 H       -13.8685112118        3.1193516369      -11.2161050385
 H       -15.2030009635        2.7429013776      -10.3795822751
 H       -12.8346308496        6.9425045568      -13.1938077819
 H       -14.0722098080        8.1684747596      -12.8225571666
 H       -15.6267017475        7.2536544789      -14.1868646299
 H       -15.0194739110        5.6105916641      -14.0038693266
 H       -14.1099271244        6.1177966358      -18.7112361488
 H       -14.7897726020        7.5286404292      -19.4636368486
 H       -16.6060062398        6.1176702091      -20.2335186088
 H       -16.9261724425        5.6268293037      -18.6249439727
 H       -19.0713974192        3.3943517213      -21.0199975443
 H       -17.9926662793        3.1097125734      -19.6837772047
 H       -18.6157277317        1.7812031559      -20.6537469361
 H       -14.1124218472        4.9693705990      -21.9136576036
 H       -15.7657442340        5.6963240769      -21.9064696900
 H       -15.3829401214        4.4599979373      -23.1291529046
 H       -14.3467177802        2.2492947582      -22.4389621258
 H       -14.7110864296        1.5258720436      -20.8295418624
 H       -13.5408436388        2.8675024227      -20.8558356429
 H       -16.2318036789        8.8308414673      -15.8836643762
 H       -15.1967304895        9.9393017927      -16.5781022419
 H       -14.8191031543        9.3478222559      -14.9535245862
 H       -12.4581945501        7.6258535115      -17.4530667943
 H       -12.6154911262        9.2385399963      -16.7496962771
 H       -13.3701339025        9.0337277024      -18.2995726698
 H       -17.0688727056        6.2503495183      -10.2583326104
 H       -16.7675200271        6.8432356133      -11.8494839701
 H       -16.2342645243        7.7385040800      -10.5037465485
 H       -13.6297146072        5.1875991126       -9.2628198680
 H       -15.2253342509        4.3050549911       -9.0434946175
 H       -15.1243211171        6.0357045009       -8.9212898839
 H       -16.0722816891        2.5858077430      -16.3642322615
 H       -15.0475063209        1.4139718535      -17.2091169829
 H       -14.2175506845        2.8653299189      -16.4091154021
 H       -16.2941018016       -0.1422151495      -15.7607756832
 H       -17.0097404558        0.6146029109      -14.3299545416
 H       -15.8550456842       -0.4782263643      -14.0689998197
 H       -10.1215395453        4.5627499795      -16.6742311479
 H        -8.7628124929        3.6463822271      -17.2219335194
 H        -8.4873035998        4.8748029769      -15.9670322111
 H        -7.3731184120        2.0523510579      -15.9632024772
 H        -8.6745049569        1.1495869350      -16.4815884158
 H        -8.2892116232        1.0473246599      -14.7921769189
 H        -6.9744689711        4.3371428063       -8.7245902014
 H        -6.9008953614        2.8305189279       -7.7224510946
 H        -8.3096778263        3.0929952640       -8.8006630655
 H        -4.5899518482        3.5406536015       -9.7245954490
 H        -4.4287721321        1.9214228313      -10.6465981969
 H        -4.3749788529        2.2226768068       -8.7782288691
 H        -6.2507221044       -3.6166602626       -6.1357034907
 H        -6.9052209497       -2.0110121119       -6.1415206742
 H        -6.1856954117       -2.7932996192       -4.7332132420
 H        -5.4786783691       -0.2825116371       -4.6720782168
 H        -3.7639535069       -0.2641193494       -5.1669340678
 H        -4.4552301832       -1.3925904954       -3.9390840843
 H         2.5566028012       -1.6188577598       -6.5659725245
 H         3.6976043855       -2.7838405752       -5.7362927653
 H         2.5526693558       -2.0127610616       -4.7673390865
 H         2.4444739103       -4.3062367701       -7.6015533578
 H         1.2716846728       -3.0379338788       -7.9500614234
 H         0.6224948642       -4.7146689953       -7.7420642514
 H         7.0114137299       -7.8271228970       -1.9130614270
 H         5.3403578309       -8.4340021258       -1.9622291590
 H         5.6990799843       -6.6310000565       -1.8460051166
 H         6.8772796321       -6.2352934858       -5.3021728537
 H         7.8936074130       -6.1896279879       -3.9219201401
 H         6.3621460377       -5.1597250434       -3.8412918564
 H        10.9533005591      -12.6815916854       -3.9580778598
 H         9.2632143134      -12.8429111290       -4.3106906384
 H         9.9460657991      -13.5574459300       -2.8135189462
 H        10.6387287995      -12.5607073414       -0.9605812783
 H         8.9725580494      -12.2167491165       -0.8689918598
 H        10.1945926863      -10.9403892373       -0.4868118700
 H        15.2602107559       -5.8460109297       -2.6849450925
 H        14.9517117920       -7.5688921390       -2.7883072555
 H        13.9923080444       -6.5889998496       -1.7253843012
 H        12.1819134219       -4.9480639229       -2.7702228250
 H        11.9744829395       -4.8317532061       -4.5278680577
 H        13.4818158978       -4.3292459734       -3.7684351231
 H        10.8070785628       -9.7108969085       -7.1963147772
 H        12.1820881897      -10.6313888536       -7.6602256741
 H        10.7998924796      -10.4823301752       -8.7378011411
 H        13.7491497275       -9.4329910964       -9.6080546559
 H        12.7914077949       -8.2305248302      -10.5608079929
 H        12.4754792512       -9.9587249422      -10.3563082624
 Na        9.9469894874       -7.9855377775       -5.9349496143
 Na      -12.2149986187        4.8185202647      -13.9357278289
