232

 C        10.7401506381       -6.5560919379      -10.2153605437
 C        10.8106123928       -7.4377574949       -8.9546270128
 O         9.9783949214       -7.2078538700       -8.1132510208
 C        11.9827405686       -8.4135608621       -8.7319561090
 C        12.5719076315       -7.8048356905       -7.4285034869
 O        12.0516873171       -7.7905591742       -6.3383483026
 C        13.9880173271       -7.1887616396       -7.6171739072
 C        14.6181212904       -6.3024046067       -6.5183408801
 C        14.5252094320       -6.9721611522       -5.1070498853
 O        15.0871325941       -8.0312212194       -5.0065349742
 C        13.6614086924       -6.4616242150       -3.9101507520
 C        12.4619640845       -7.4063441394       -3.4758786271
 O        11.3101676933       -7.1455796825       -3.3668009244
 C        13.0133531410       -8.8772958699       -3.2463038419
 C        11.8940546289       -9.7237991141       -2.5141020729
 C        10.8092638067      -10.3466991297       -3.3704539500
 O        10.5929833098      -10.0346857083       -4.5429033233
 C         9.7654401258      -11.4555819066       -2.7892834443
 C         8.2391800163      -10.8931055323       -2.8695509575
 O         7.8734920426      -10.1533433570       -1.9313083360
 C         7.2701822676      -11.3236369553       -4.0263581911
 C         6.1530912793      -10.3184318600       -4.2147310528
 C         6.7481850685       -8.9017129106       -4.5228895484
 O         7.7506773818       -8.7946379605       -5.1535304553
 C         5.9778063651       -7.5358236653       -3.9757188034
 C         4.5790956306       -7.3764048405       -4.7381280664
 O         4.1302434555       -8.1485471351       -5.5015330388
 C         3.6992814377       -6.1443306264       -4.2486853574
 C         2.7969563463       -5.6568044261       -5.4493415634
 C         1.6848854809       -4.7518851781       -4.9506362166
 O         1.0100975094       -5.0733544857       -3.9734126129
 C         1.4442820902       -3.4698018549       -5.8529511919
 C         0.1925029695       -2.5457130427       -5.3461776058
 O         0.2844111429       -1.3891775906       -5.0109382693
 C        -1.2412363793       -3.2941408527       -5.3394129387
 C        -2.4026093039       -2.3377327235       -5.2276690670
 C        -3.6819627584       -2.7980224102       -5.8815338992
 O        -3.7631461879       -3.9140811808       -6.4120394372
 C        -4.8586100733       -1.9111540054       -6.1101536686
 C        -4.5442969467       -1.1212024846       -7.5132202337
 O        -3.7124655735       -0.1993109553       -7.6712304871
 C        -5.4316482546       -1.5882698602       -8.7189143891
 C        -5.6792466555       -0.4502879343       -9.8072871508
 C        -6.4111784637        0.7008538358       -9.1730123458
 O        -7.1132662571        0.5792473426       -8.2163229925
 C        -6.0827456472        2.2513380649       -9.6790855775
 C        -6.7051114921        2.2105254574      -11.0797258250
 O        -6.5226290782        1.2185857691      -11.7516574436
 C        -7.7727889627        3.2460822631      -11.6236611948
 C        -7.8639747079        3.2012947258      -13.1168194893
 C        -9.2538131561        3.1788145048      -13.7422920004
 O       -10.0298152683        3.9856233573      -13.2829436197
 C        -9.4543296382        2.6090300360      -15.1986925712
 C       -10.9274483138        1.9644403539      -15.2263375130
 O       -11.8265167247        2.7566027318      -15.1633485312
 C       -11.2758497107        0.5479376215      -15.6754434612
 C       -12.8265161266        0.3523571374      -16.0024632724
 C       -13.6720470873        0.6498608006      -14.7152480415
 O       -13.2042219905        0.3913694334      -13.5886334233
 C       -15.0680852994        1.2821541555      -14.7750895669
 C       -14.9033426233        2.4035911722      -13.6449040331
 O       -14.2810349426        3.4031543084      -13.9473752285
 C       -15.2419569411        2.0359828390      -12.1487709147
 C       -15.0605144966        3.1650093373      -11.0960193983
 C       -15.7199918570        4.5482024999      -11.4662448194
 O       -16.7018074940        4.5487173036      -12.0728437398
 C       -15.0925749162        5.8828990696      -10.9183807078
 C       -14.0470748334        6.1647957984      -11.9863002905
 O       -13.0797802765        5.4180466404      -12.1025857244
 C       -14.1301629673        7.2343938152      -13.0525317998
 C       -14.8163194270        6.5092871592      -14.2664347691
 C       -13.9529031191        6.8495680267      -15.4855117531
 O       -12.8237974143        6.4690903733      -15.5995374990
 C       -14.4330404447        7.9201425445      -16.5104813620
 C       -15.6185224565        6.9431094236      -17.2712690909
 O       -16.6666192223        7.0133766790      -16.6749574549
 C       -15.1507758019        6.1801621858      -18.4977702137
 C       -16.1926155334        5.5317699193      -19.4464398055
 C       -15.7374947874        4.1479698513      -19.8731401592
 O       -15.3504690921        3.3341614736      -19.0322263146
 C       -15.6443594580        3.8434321066      -21.3845478459
 C       -17.1422261279        3.4335124409      -21.9263457650
 O       -17.2343682966        3.0927340437      -23.0715004942
 C       -18.2716244061        3.4048180440      -20.9097071211
 C       -14.9926274590        5.1021683598      -22.0973429972
 C       -14.7372520420        2.6387080704      -21.6919390783
 C       -15.1724869407        9.1379596062      -15.8736297772
 C       -13.2955099597        8.3755915188      -17.4373110285
 C       -16.2135961586        6.9232856913      -10.9930475008
 C       -14.5501367259        5.7033509197       -9.5271095063
 C       -15.4331406473        1.9485309592      -16.1322576407
 C       -16.0845342954        0.1751205600      -14.5029288585
 C        -9.3390345906        3.8561764435      -16.1586768387
 C        -8.3468833896        1.5539549590      -15.5421561554
 C        -6.6700443677        3.2218284359       -8.6725820266
 C        -4.5323341335        2.3541248667       -9.6964953545
 C        -6.1008071110       -2.7930034545       -5.9720284768
 C        -5.0187674404       -0.7683280119       -5.0893947881
 C         2.5678926460       -2.3806232268       -5.7658325295
 C         1.1793277146       -3.9008451803       -7.3023421217
 C         5.5934949460       -7.7283361577       -2.5860017385
 C         6.9223278761       -6.2562253957       -4.2412364665
 C         9.8630015510      -12.9114035941       -3.6231613261
 C         9.8767684456      -11.9591167175       -1.3556352537
 C        14.7535106197       -6.3380716006       -2.7636919622
 C        13.1493064572       -5.0618901053       -4.2619660978
 C        11.3346870639       -9.7877519244       -8.3232043909
 C        13.0009896162       -8.7331481817       -9.9127700978
 H        11.5631640263       -5.8825345713       -9.9632741700
 H         9.8241202652       -6.0454547148      -10.4313077414
 H        11.1218644442       -7.0600604273      -11.1427553820
 H        14.1178789871       -6.5556876548       -8.5101487196
 H        14.5923229574       -8.1512292964       -7.8694566703
 H        14.2975234383       -5.2598787566       -6.6470305184
 H        15.6993575893       -6.2500364045       -6.8250125337
 H        13.9182159471       -8.7929796162       -2.6031881373
 H        13.3803299146       -9.3124774714       -4.2225954530
 H        11.4435964491       -9.0066426697       -1.8033262047
 H        12.3850654286      -10.5361248730       -1.9643378108
 H         6.7997102163      -12.2281424094       -3.6455791884
 H         7.7143924659      -11.5939018459       -4.9759836511
 H         5.4338584943      -10.3679778479       -3.3122609371
 H         5.5447658384      -10.6217464933       -5.0404779818
 H         4.3057170655       -5.3498607851       -3.7881245054
 H         2.9717849045       -6.5061584523       -3.4548327297
 H         2.4415034168       -6.4005587493       -6.0943539662
 H         3.4312833228       -5.0796761438       -6.1648744280
 H        -1.2911336118       -3.9421567559       -4.4931819743
 H        -1.4337449023       -3.8845517553       -6.2012604560
 H        -2.0479165965       -1.4300123332       -5.7137503772
 H        -2.4622992099       -1.9588042130       -4.1585860413
 H        -6.3544755447       -1.8709655191       -8.3955468900
 H        -5.0088699650       -2.4513050414       -9.2894604230
 H        -6.2652406869       -0.8992305918      -10.6338839020
 H        -4.6954762238       -0.1967397006      -10.2377343420
 H        -7.4605471253        4.2232743642      -11.2848942073
 H        -8.8845166877        3.1937189139      -11.2447299356
 H        -7.2640369107        2.3549350089      -13.5014247661
 H        -7.3768174367        4.0825042926      -13.5462268417
 H       -11.0650588207       -0.1806470448      -14.8748022097
 H       -10.7092027427        0.3021275453      -16.6212126056
 H       -13.0746195835       -0.7294202470      -16.3266459113
 H       -13.1008478973        0.9917335928      -16.8532021488
 H       -14.5895182740        1.2344045861      -11.9492177570
 H       -16.3354115741        1.7140853197      -12.0233266126
 H       -14.0878526534        3.3600498406      -10.6242954003
 H       -15.5473272248        2.8099293888      -10.2553594943
 H       -13.1592198486        7.5975675668      -13.4313464505
 H       -14.7955979836        8.1194795446      -12.8805712234
 H       -15.8288923830        6.9670502085      -14.3957362989
 H       -15.0041419497        5.4385374044      -14.1617889788
 H       -14.5632808048        5.3769605254      -18.1030156548
 H       -14.3873691532        6.7835959280      -19.0769129401
 H       -16.3234394785        6.1536463776      -20.3275659504
 H       -17.1998132675        5.4490843333      -18.9443003485
 H       -19.1249006527        3.0630527267      -21.4627275765
 H       -18.6817875390        4.3218733351      -20.5046915797
 H       -18.0519347989        2.8911614363      -19.9601337221
 H       -14.3102188601        5.5722587733      -21.4433167793
 H       -15.9026666414        5.6725176677      -22.3040542462
 H       -14.5996743458        4.7905775958      -23.0696217919
 H       -15.0821060943        2.0989771608      -22.5008971231
 H       -14.5198140619        2.0356161870      -20.8779492682
 H       -13.7466189455        3.0853325581      -21.9385884268
 H       -15.9419027429        8.8023882167      -15.1492746199
 H       -15.8586450865        9.5444023115      -16.6168369832
 H       -14.4700328512        9.9043954800      -15.5105428031
 H       -12.7649414050        7.5293861497      -17.8421476360
 H       -12.6297936397        8.9725197642      -16.8272197062
 H       -13.6117518522        9.0407085746      -18.2294640313
 H       -16.8117973495        6.8282939239      -10.1359584659
 H       -16.9738985479        6.6488092722      -11.7560188935
 H       -16.1384161635        7.9529628692      -11.2109462423
 H       -14.9435997324        4.8195455436       -9.0459765274
 H       -14.8465377254        6.5804518587       -8.9345917069
 H       -13.5407100140        5.5021983944       -9.6500453709
 H       -16.3555817427        2.4418553651      -15.9752230293
 H       -15.6666156396        1.2198233030      -16.9757944210
 H       -14.6967555729        2.7737479300      -16.3169761519
 H       -16.0083266536       -0.6698526422      -15.1884114640
 H       -17.1456458906        0.4467216205      -14.5203381295
 H       -16.0266794671       -0.3167548364      -13.5272452994
 H        -9.2988756253        4.7679080072      -15.5674344764
 H       -10.0595913586        3.8687193144      -17.0010609971
 H        -8.4230779487        3.8863916299      -16.6097794518
 H        -7.4206025094        2.0667648136      -15.6863820515
 H        -8.6388146677        0.8543180147      -16.3742523657
 H        -8.2129962445        0.8897508963      -14.6889366056
 H        -6.9002298170        4.2957703997       -9.1287404293
 H        -6.1199818266        3.4660904648       -7.7688701840
 H        -7.6339448734        2.7598238946       -8.3410220872
 H        -4.2379981608        3.3628046491      -10.2129626597
 H        -4.0417847882        1.5076223471      -10.2004680462
 H        -4.1397608726        2.3711480719       -8.6710681765
 H        -6.3839772771       -3.4582454838       -6.7955088746
 H        -6.9945516706       -2.1067693978       -5.9169946322
 H        -5.9992585459       -3.3899254057       -5.0794246960
 H        -5.8586548278       -0.1284522130       -5.4614641127
 H        -4.1532000388       -0.1582566818       -5.2005001346
 H        -5.1756955447       -1.0621242253       -4.1403422629
 H         2.1656536771       -1.4501752495       -6.2063665189
 H         3.5308273011       -2.6911943409       -6.2112873634
 H         2.7237716363       -2.0825150829       -4.6985050976
 H         2.1462195640       -4.2590065294       -7.6793304816
 H         0.9662278053       -3.1004550991       -7.8856084667
 H         0.3259860267       -4.5252394906       -7.5318366117
 H         6.3906994825       -8.1467642862       -1.8683900521
 H         4.7731763368       -8.4262912336       -2.5575750559
 H         5.2942663705       -6.7252723146       -2.3597915216
 H         7.0905255338       -6.0396876638       -5.3145771943
 H         7.8666888237       -6.2644079409       -3.8104002841
 H         6.2963406003       -5.5803286086       -3.7263582426
 H        10.5947095955      -13.4661254714       -2.9511820671
 H        10.2845946885      -12.8580039575       -4.6177772399
 H         8.9759454684      -13.4827994599       -3.7737334104
 H        10.7719802230      -12.5491391997       -1.1564140857
 H         8.9337174686      -12.5095273464       -1.0810080883
 H         9.8111470044      -11.2156836831       -0.5259411137
 H        15.4580381742       -5.5232565288       -2.9665985599
 H        15.4008591840       -7.1990937305       -2.7452554978
 H        14.3739776266       -6.2208162934       -1.7984416945
 H        12.7839282511       -4.4372453578       -3.4872358579
 H        12.2924409330       -5.1055503281       -4.9732642571
 H        13.9672118460       -4.5521294655       -4.6995696993
 H        11.0701012088       -9.7567447641       -7.2771803932
 H        12.0544547751      -10.6029333526       -8.4949793858
 H        10.5032897721       -9.9526081742       -8.9518288300
 H        13.4682630778       -9.7748225916       -9.7091781995
 H        13.7826912358       -7.9294705075      -10.0235366907
 H        12.3953744763       -8.7463978354      -10.8595698168
 Na        9.8675915483       -7.9855824919       -5.6248793271
 Na      -12.2187087486        4.7506721506      -14.0509060756
