232

 C       -19.4080918134       -7.9359586397       -1.8498814945
 C       -18.5579066117       -9.2359832087       -1.6292757357
 O       -17.5442328097       -9.5142920904       -2.3118442750
 C       -19.0337430261      -10.2753996099       -0.5645359945
 C       -17.7452149097      -10.6639297186        0.1966890904
 O       -17.1113894027      -11.6601494011       -0.1553736431
 C       -17.2707864160       -9.9595711503        1.4309226123
 C       -15.6760711384       -9.8254175962        1.4261376821
 C       -15.2196034970       -8.7441338589        0.4071689568
 O       -15.8584008320       -7.8243927046        0.0586941714
 C       -13.6824958215       -8.8886566200       -0.1219406121
 C       -13.7635702842       -9.8644833628       -1.3568313607
 O       -14.2089608886      -10.9589269324       -1.0534106986
 C       -13.6207648954       -9.5078281864       -2.8191829419
 C       -13.1582565388      -10.6217417690       -3.8036308322
 C       -14.2064432229      -10.7542335514       -4.8944587015
 O       -15.3643069346      -10.9712149757       -4.4954782141
 C       -13.8447748149      -10.7180624059       -6.4392331562
 C       -13.3961365924       -9.2289454843       -6.7355696245
 O       -12.5738915193       -8.7468733732       -6.0214485544
 C       -13.9957759502       -8.2410698548       -7.9219673117
 C       -13.0364242875       -7.0742886374       -8.1703708700
 C       -13.8685452933       -5.8897072376       -8.7802983023
 O       -14.7636306721       -5.2740430500       -8.2408209744
 C       -13.4602976435       -5.5013125411      -10.2794503411
 C       -12.1924022583       -4.7003105973       -9.9866723322
 O       -11.2664356441       -5.3961747424       -9.6202085189
 C       -12.0120949683       -3.2316704840      -10.3478864836
 C       -10.6829418470       -2.5989115604       -9.9833459131
 C       -10.4532947758       -1.1951973019      -10.4409750570
 O       -11.3435541057       -0.5328233089      -10.9726661815
 C        -9.0087666100       -0.5404899951      -10.1513167448
 C        -7.8257314041       -1.2191411278      -10.8661626739
 O        -8.0781108091       -1.9684728400      -11.7643334444
 C        -6.2657899382       -0.7497444432      -10.5265583080
 C        -5.4385481364       -0.6935820939      -11.8730632154
 C        -4.3529541301        0.3844890749      -11.6579482237
 O        -4.5261083485        1.4223735920      -11.0244988832
 C        -3.0215584969        0.2470557113      -12.4000296308
 C        -2.1867598289       -0.7297393028      -11.5157268816
 O        -1.6400434694       -1.6469480525      -12.0417191741
 C        -2.1641160565       -0.4597558126      -10.0288042301
 C        -0.7233704916       -0.7559608105       -9.5192627170
 C        -0.3225942083        0.0546562846       -8.0537518384
 O        -0.9272799519        1.0371214321       -7.8135873306
 C         0.9507647813       -0.3666212899       -7.2803257116
 C         1.9580452527        0.4835930390       -8.1016446301
 O         2.4654517742       -0.1049990094       -9.0111056311
 C         2.0335546723        2.0580225531       -8.1886143460
 C         3.4398974753        2.5040875373       -8.7078599770
 C         3.4237132926        3.9241952260       -9.3115670417
 O         2.4492929196        4.5218267440       -9.6056011233
 C         4.8995219173        4.3188755528       -9.8223392891
 C         4.8325454685        4.2468538765      -11.4443206457
 O         5.4425830735        3.3934989159      -12.0773540660
 C         3.8169115547        5.2269191071      -12.1587791500
 C         4.2449883312        6.7106606228      -12.3255966941
 C         4.7637556891        6.9005504821      -13.9083703502
 O         4.8206195359        5.9283671973      -14.6125359700
 C         5.0626657903        8.3433215134      -14.3798577994
 C         5.9319491983        8.2175918586      -15.7983361101
 O         5.7867208185        8.9303669111      -16.7457478710
 C         7.1705506819        7.2602015028      -15.7445861761
 C         7.5394655817        6.7140976047      -17.1176461073
 C         7.1327342747        5.2846977427      -17.3440501440
 O         6.6924345963        4.6660629704      -16.4011132637
 C         7.7311522113        4.6024521323      -18.6133318872
 C         9.2689303908        4.3434441011      -18.2174433251
 O         9.7345374528        4.8981393401      -17.2456498422
 C        10.1617486285        3.4864556735      -19.2413894687
 C        11.0700638184        2.3222694477      -18.6000784354
 C        10.3185820957        1.1364474149      -18.1090493179
 O         9.1849359318        0.8584042579      -18.4201287232
 C        11.1593764831        0.1107691436      -17.2894043182
 C        10.4988238313       -0.0446127628      -15.8496483853
 O        11.0729698098        0.3829184367      -14.8882882587
 C         8.9858825060       -0.6280885747      -15.8377966573
 C         8.3240196837       -0.4374641908      -14.4620620904
 C         7.0951748649        0.4659847791      -14.3883473096
 O         7.3255884509        1.5522494557      -13.9003987418
 C         5.6121554751        0.1136117169      -14.7230689870
 C         5.1993183163        0.9719355758      -15.9995973127
 O         5.0626541391        2.1882154570      -15.9454324536
 C         4.5858409146        0.3371995293      -17.2385260547
 C         5.3207547122       -1.4064812097      -14.9293742118
 C         4.8780895750        0.5491099857      -13.4987985483
 C        11.0786985921       -1.2763743696      -17.9949274513
 C        12.6482131608        0.6327279968      -17.2360391412
 C         6.9872155391        3.2912772377      -18.8056313547
 C         7.5596918452        5.4465488084      -19.8881267946
 C         3.5946414888        9.0917014999      -14.7360256734
 C         5.8827094835        9.2089105191      -13.3672643619
 C         5.2553579150        5.8115373524       -9.2829678149
 C         6.0111673850        3.2774098717       -9.3426325281
 C         0.8862292192        0.2015882823       -5.8949497807
 C         1.2353813849       -1.9057502907       -7.3392345149
 C        -3.3172482165       -0.2184207260      -13.7994606204
 C        -2.2277949400        1.5918636853      -12.4004977105
 C        -8.9960356508        1.0203934721      -10.4840016680
 C        -8.7552451811       -0.6784572734       -8.5787394389
 C       -13.0080372360       -6.6866641535      -11.1520899767
 C       -14.6154899541       -4.7179998896      -10.9709911791
 C       -12.6112236522      -11.6226924313       -6.7002391989
 C       -15.1990557847      -11.1490274679       -7.0830475983
 C       -13.3691558962       -7.4982823115       -0.5679349151
 C       -12.7757329467       -9.3886483446        1.0597751603
 C       -20.2016000004       -9.7814978713        0.3571028210
 C       -19.5330824667      -11.5903988210       -1.3465373104
 H       -19.6846640517       -7.5328784395       -0.9230032402
 H       -20.3228633786       -8.3105273197       -2.3799869292
 H       -18.8249917128       -7.2417581418       -2.4520314500
 H       -17.7420043462      -10.4539291560        2.2954734982
 H       -17.8254866400       -9.0013176100        1.3905548625
 H       -15.1795905018      -10.7649027743        1.2491312361
 H       -15.2573644189       -9.5344380674        2.3969528138
 H       -12.8586649099       -8.7307525148       -2.8853202204
 H       -14.4758457746       -9.0322742046       -3.2265602347
 H       -13.0321015344      -11.5796141062       -3.2168294137
 H       -12.1262253667      -10.2635460055       -4.2410706599
 H       -14.9801781364       -7.9001623094       -7.5114469417
 H       -14.0960937135       -8.8378861157       -8.8337069897
 H       -12.2171598068       -7.3243190468       -8.8472428838
 H       -12.6020565639       -6.6857561206       -7.2723810289
 H       -12.9414482577       -2.6960203921       -9.9945163996
 H       -12.1696814476       -3.2175845606      -11.4463723615
 H        -9.8490544960       -3.1906544810      -10.3729805006
 H       -10.5793204618       -2.7517358649       -8.8882774815
 H        -5.6672612206       -1.5173647856       -9.9380954502
 H        -6.0994052995        0.2007865816      -10.0833723314
 H        -5.9611940370       -0.3054373600      -12.7461503486
 H        -4.9486546705       -1.5709607404      -12.3301902254
 H        -2.8935326754       -1.1471316676       -9.6401637097
 H        -2.4859358951        0.5467315972       -9.6045270222
 H        -0.0249368671       -0.5776460205      -10.3676712859
 H        -0.6937693597       -1.9404385706       -9.5210951026
 H         1.8898560908        2.6069445650       -7.3407388911
 H         1.2743436125        2.3242464265       -8.9839964326
 H         3.8038203755        1.7797074277       -9.4482721532
 H         4.1205500460        2.3377317899       -7.9178125103
 H         2.9257480138        5.1775579477      -11.4213778166
 H         3.2452449379        4.8295401589      -13.0663396449
 H         4.9684713673        7.0419436442      -11.5670276160
 H         3.3546883902        7.3808651196      -12.2729310711
 H         6.9853318803        6.4638502890      -15.0375141785
 H         7.9896350275        7.8468706816      -15.3226797881
 H         8.6438172705        6.8448460436      -17.3399461096
 H         7.0410993399        7.3025505191      -17.8362430465
 H        10.8124642550        4.2217928947      -19.6263555408
 H         9.6484691701        3.1361256306      -20.1967057612
 H        11.5358608229        2.8427863872      -17.7655506670
 H        11.7426969426        1.9069914473      -19.2942797329
 H         8.9994154857       -1.7676986270      -15.9255871270
 H         8.3422976533       -0.2939589188      -16.6420444558
 H         8.9642882981        0.0434747622      -13.6460632345
 H         7.9161318587       -1.3571919618      -14.1604499302
 H         4.9987332050       -0.6889144663      -17.3788637401
 H         4.7444140629        0.8208839898      -18.2134968148
 H         3.5190916237        0.1511593210      -17.0287954360
 H         4.3638595500       -1.7551366501      -15.4075289852
 H         5.3566927799       -1.9553196729      -14.0094015933
 H         6.0863104138       -1.8636644842      -15.5801069994
 H         3.7960040591        0.5691051308      -13.6376121496
 H         5.3831756334        1.5429152667      -13.1499465529
 H         5.1219098594       -0.2836742328      -12.8044275399
 H        11.8928085531       -1.7120490897      -18.6590187673
 H        10.1200735883       -1.2471832125      -18.5223957957
 H        10.9172176317       -2.0567991188      -17.1900703145
 H        13.0487147960        0.8548344809      -18.2286892951
 H        13.2555444496       -0.0660595090      -16.6475905879
 H        12.7741107214        1.5991060091      -16.7410244840
 H         5.8384235777        3.3779353200      -18.8372699522
 H         7.1706020692        2.5238263735      -18.0522559085
 H         7.4360382098        2.8816601094      -19.7292236098
 H         7.5972193854        6.4848058216      -19.6869869128
 H         6.5635277550        5.1732329084      -20.3611088405
 H         8.2534738399        5.1216122710      -20.6405614462
 H         3.0642310776        9.1112938477      -13.8212864368
 H         3.0106232804        8.6630366298      -15.5711835935
 H         3.7882177079       10.1310885211      -14.9129778206
 H         6.2478292526       10.0486724659      -13.8593888888
 H         6.7134286186        8.7142234884      -12.9772685873
 H         5.3218830437        9.4887703427      -12.4819197692
 H         5.3610574829        5.5717920992       -8.1836734436
 H         4.5025051645        6.5513706582       -9.4783491405
 H         6.2691864419        6.1767930526       -9.6601709787
 H         7.0288141976        3.6669794339       -9.4341862905
 H         6.2270705194        2.4625088511      -10.0738868900
 H         5.8967977780        3.0045186325       -8.2912351792
 H         0.7240627472        1.1987961515       -5.9995196598
 H         1.8353203918       -0.0250866497       -5.4253431160
 H         0.1637340019       -0.2359545040       -5.2576700451
 H         0.3670810571       -2.4603748830       -6.9627400066
 H         2.1143115921       -2.1429415137       -6.7176104230
 H         1.5139112956       -2.2201436201       -8.3280751830
 H        -3.6778363747       -1.2763980688      -13.9310210640
 H        -2.3414923341       -0.2295981119      -14.3327536612
 H        -3.9739540341        0.4999670903      -14.4150477085
 H        -1.3392271374        1.5481579008      -12.9985345472
 H        -1.9392293741        1.9788184769      -11.4056527229
 H        -3.0466244275        2.3073139660      -12.7293458724
 H        -9.4604269082        1.4885695373       -9.6501337454
 H        -9.6709955408        1.1530722322      -11.4045030838
 H        -7.9891961561        1.5116825670      -10.6587606466
 H        -9.5449285206       -0.1395625837       -8.1360128464
 H        -7.9380688974        0.0015179018       -8.4595424697
 H        -8.6839878045       -1.7175459282       -8.2957680345
 H       -13.4176659536       -6.5510262745      -12.1783661413
 H       -13.5980630544       -7.5586072747      -10.8944890042
 H       -11.9878653902       -7.1092535574      -11.1672062267
 H       -15.5705356035       -5.2526704755      -10.7244550151
 H       -14.4552924683       -4.7402519638      -12.0746662485
 H       -14.6511696857       -3.7754654298      -10.4510033143
 H       -11.6760122772      -11.2239607464       -6.3266171477
 H       -12.6625027445      -11.7951233865       -7.7676776093
 H       -12.8217925245      -12.5698911879       -6.1503670827
 H       -15.8929675502      -10.3844902182       -7.3642113483
 H       -15.7826270170      -11.8011977745       -6.4342727413
 H       -15.1372838525      -11.7870188492       -8.0712143868
 H       -14.1496426235       -7.1136764418       -1.2672278522
 H       -12.4121659252       -7.5076244517       -1.0399074197
 H       -13.3467537732       -6.8476608181        0.2916176680
 H       -13.1172048945      -10.4122863839        1.1710730623
 H       -13.0661081028       -8.7572874707        1.9064399689
 H       -11.8336151973       -9.1709383852        0.8313133230
 H       -19.9833478257       -8.8631206239        0.6895392991
 H       -20.3899718351      -10.4938519000        1.0840118457
 H       -21.1340432494       -9.6302837592       -0.2518333922
 H       -19.4982725686      -12.3468136606       -0.6184837807
 H       -18.8878251000      -11.9675059680       -2.1864515792
 H       -20.5841169027      -11.4315216884       -1.6319021083
 Na      -16.1559164564      -11.3350496043       -2.5273162181
 Na        5.8651003874        3.6986663121      -14.5131287774
