232

 C        10.1168509185       -6.4676206413       -9.7859233067
 C        10.6976088894       -7.1509280322       -8.5195315397
 O        10.0154054118       -7.1005658446       -7.5075024331
 C        11.9162480297       -8.1183845066       -8.5338939827
 C        12.8858533054       -7.6349270365       -7.4408159254
 O        12.4011828075       -7.7216095095       -6.3182553325
 C        14.4167422167       -7.5481541093       -7.4943306898
 C        14.9651971996       -6.6497497487       -6.4125021568
 C        14.5345982409       -7.2929467962       -5.0443063785
 O        14.9251759690       -8.3939451031       -4.8792505923
 C        13.6384518331       -6.4669747769       -4.0092492553
 C        12.4025952369       -7.3618387557       -3.6555929355
 O        11.3238601669       -6.9277870828       -3.8331102695
 C        12.6748141972       -8.7641107625       -3.0472185195
 C        11.3083081836       -9.4104029630       -2.6929884067
 C        10.7196083019      -10.4107629944       -3.6431282845
 O        10.6971292785      -10.2087304493       -4.8650045636
 C         9.8737485868      -11.5578454881       -2.9846068752
 C         8.4533406425      -10.7269410150       -3.1100059328
 O         8.3181515150       -9.7166167993       -2.3604805097
 C         7.4351589557      -11.2748646635       -4.1639676873
 C         6.2169961825      -10.3203136580       -4.3358174701
 C         6.7712870238       -8.8051828392       -4.5968010986
 O         7.8383329682       -8.6301276586       -5.1134865975
 C         6.0071631202       -7.5524529416       -4.0897206347
 C         4.6242802655       -7.3884723746       -4.8603687421
 O         4.6033243994       -8.0907143826       -5.8635716702
 C         3.5500628649       -6.2345006878       -4.5611107724
 C         2.7040000450       -5.8358219449       -5.7844397108
 C         1.6699999417       -4.8554787707       -5.2615298873
 O         0.9009487804       -5.2518654424       -4.3951105693
 C         1.3822223900       -3.4055354869       -5.8776050410
 C         0.1890336580       -2.5869086542       -5.1366603085
 O         0.5427595827       -1.4554021941       -4.7130754713
 C        -1.2505132766       -3.2108891407       -5.0747309376
 C        -2.4001417526       -2.2714994955       -5.4607395396
 C        -3.7037379515       -2.9453135012       -5.7822630143
 O        -3.9070583143       -4.1721073720       -5.6515960978
 C        -4.8139762284       -1.9272389256       -6.0786646260
 C        -4.4698544940       -1.3642662556       -7.5056157927
 O        -3.5057906674       -0.6091871479       -7.6385416628
 C        -5.2438198431       -1.6714915901       -8.7855057048
 C        -5.2181476862       -0.3831901639       -9.6426118188
 C        -6.0464319422        0.7343566351       -9.1153384965
 O        -6.8090359924        0.5649730102       -8.1745119841
 C        -5.9969186865        2.0542745618       -9.8440750524
 C        -6.5751965012        1.9941488086      -11.2916905856
 O        -6.1145715498        1.1593443160      -12.0420225137
 C        -7.7660179110        2.9242221284      -11.7785896082
 C        -7.9847802399        2.8015061610      -13.2479817302
 C        -9.3919836688        2.8825484817      -13.7763612828
 O       -10.2816282798        3.3268054984      -13.0823200770
 C        -9.6531147909        2.3889372060      -15.2239871483
 C       -11.1156676789        1.8412272472      -15.2085771801
 O       -12.0904393134        2.5695858240      -14.9253420824
 C       -11.3519464033        0.4161319867      -15.5665619902
 C       -12.8329165102        0.0751574992      -15.7061190091
 C       -13.5342399543        0.3699817469      -14.3197777294
 O       -13.1404085813       -0.1147256862      -13.2875885305
 C       -14.7849971986        1.2133796906      -14.3424792289
 C       -14.7320737508        2.4159415340      -13.3395227235
 O       -14.3100252032        3.5028306189      -13.7173390099
 C       -15.3789152014        2.2887468256      -11.9778246835
 C       -15.1071646197        3.3061061123      -10.9169988963
 C       -15.8168645811        4.5798216187      -11.2310857636
 O       -16.8887944737        4.6380618985      -11.7855040915
 C       -15.1454228662        6.0399446314      -10.8448775001
 C       -14.0968210455        6.2828453377      -11.9098841106
 O       -13.1212968096        5.5008027217      -11.9782925362
 C       -14.2769003388        7.4276512571      -12.9728835410
 C       -14.9176354198        6.8912540613      -14.2824929542
 C       -13.9814504582        7.0028765337      -15.5431541151
 O       -12.8809814661        6.5070596243      -15.5408738600
 C       -14.5201300922        7.9724118329      -16.8032667132
 C       -15.6428279532        7.1349850676      -17.6093090014
 O       -16.7680915191        7.5020765962      -17.5313497038
 C       -15.1339672832        5.8288180338      -18.2459491825
 C       -16.2592738774        5.2463188953      -19.1411100667
 C       -15.7687320355        4.0046049568      -19.9278146949
 O       -15.3080151580        3.0642045448      -19.2975881432
 C       -15.7666210600        4.0079154423      -21.4753374617
 C       -17.3047750386        3.8361344577      -22.1543565882
 O       -17.3870877695        3.9630160393      -23.3369109921
 C       -18.5074225511        3.8318315108      -21.2956095864
 C       -15.2467689274        5.4201346281      -22.1436891866
 C       -14.9367932213        2.8702453216      -21.9684770684
 C       -15.3033619788        9.2648435492      -16.1968841851
 C       -13.4094970524        8.3640572443      -17.8648129485
 C       -16.3438627564        6.9681350562      -10.7493499570
 C       -14.5762518475        5.6737490820       -9.3406463128
 C       -15.1322018509        1.8035852505      -15.7151895353
 C       -15.8342528965        0.1699320777      -13.9485783817
 C        -9.5490870472        3.6884620673      -16.1242919572
 C        -8.5392985796        1.3288334976      -15.6043026211
 C        -6.7042238127        3.1378434616       -8.9871925547
 C        -4.5151100645        2.4529756051       -9.9767149446
 C        -6.1602293875       -2.6948928103       -5.9787970266
 C        -5.0444099117       -0.5831174967       -5.1424985826
 C         2.6726770607       -2.5268796666       -5.8538182473
 C         0.9405871948       -3.4888606149       -7.3770397410
 C         5.6293148754       -7.6857702192       -2.5553931980
 C         6.7730593771       -6.2498183237       -4.1686222386
 C         9.9626682985      -12.8951868504       -3.7228787297
 C        10.1675459278      -11.8718961964       -1.4605501916
 C        14.5393824639       -6.5411242476       -2.7976362888
 C        13.2785996169       -4.9994591777       -4.4863732893
 C        11.4776556306       -9.4999220943       -8.1035645417
 C        12.6635263275       -8.3471585393       -9.9018849603
 H        10.8513271441       -6.1163092359      -10.4592261085
 H         9.5633162202       -5.5986139752       -9.3915616294
 H         9.4397314208       -7.1264892508      -10.2942022715
 H        14.7368944023       -7.2677075763       -8.4950660236
 H        14.8250988010       -8.5731753874       -7.2578356681
 H        14.5969621898       -5.6733489845       -6.5705701982
 H        16.0387268604       -6.6388241901       -6.4318326824
 H        13.2396979239       -8.5769070072       -2.1044896488
 H        13.3534159468       -9.3247972769       -3.6836253112
 H        10.5481885560       -8.6525876585       -2.6253191141
 H        11.4627835140       -9.8442855230       -1.7353298983
 H         7.0763923546      -12.1893018636       -3.7298959678
 H         7.9239533050      -11.4225621953       -5.1061289551
 H         5.5866177045      -10.3811958922       -3.3829290446
 H         5.6148119606      -10.6326891738       -5.1411241180
 H         4.0618495523       -5.4787339188       -3.9972932190
 H         2.9188360165       -6.6154784545       -3.7490771863
 H         2.2936745477       -6.6593643108       -6.2936328182
 H         3.3840489309       -5.4398407639       -6.5705297774
 H        -1.4912638965       -3.4617554817       -4.0697722502
 H        -1.3461313627       -3.9933918918       -5.7507565319
 H        -2.1403059069       -1.5939796614       -6.2920469301
 H        -2.5191249016       -1.4780600275       -4.6460532362
 H        -6.2796751226       -1.8673184675       -8.6712257387
 H        -4.6991041120       -2.5511801472       -9.2899288960
 H        -5.6708010503       -0.5878083180      -10.6176041128
 H        -4.1837675313       -0.1340147680       -9.7745327310
 H        -7.5773791381        3.9758721493      -11.5788717379
 H        -8.6005881577        2.6687180568      -11.0140316739
 H        -7.6296984452        1.7982862665      -13.5116212240
 H        -7.2689389275        3.3641562220      -13.7909229615
 H       -11.0061492036       -0.2684047204      -14.7083609668
 H       -10.7455719262        0.0534323843      -16.4817544461
 H       -12.9080335158       -1.0233345948      -15.9279890499
 H       -13.2885033811        0.5493807104      -16.5533863749
 H       -14.9754884089        1.3156572745      -11.5949499086
 H       -16.5176216976        2.1579288533      -12.2366401607
 H       -14.0052213443        3.4334291658      -10.7252545576
 H       -15.5143985576        2.9672330917       -9.9967916110
 H       -13.2936867745        7.9091256864      -13.2812947816
 H       -14.8629247261        8.3005792512      -12.5750468247
 H       -15.9525264708        7.2912175472      -14.3884441940
 H       -15.1968040141        5.8590809832      -14.0817373963
 H       -14.8333083979        5.1336511055      -17.5070962781
 H       -14.2537131650        6.0343753126      -18.9024774044
 H       -16.4866890760        5.9687161926      -19.9038828428
 H       -17.1811348720        5.0772247929      -18.5402459831
 H       -19.2447832384        3.1409605353      -21.7610468110
 H       -19.1009325977        4.7388932553      -21.4420774890
 H       -18.4322041016        3.7885844934      -20.2007871890
 H       -14.1763285090        5.4098496976      -22.2406769694
 H       -15.6912311840        6.1755650108      -21.5163973549
 H       -15.6680975259        5.3616527622      -23.1436401190
 H       -14.6051142008        3.0245575018      -22.9034807624
 H       -15.4079161782        1.9487584076      -21.8166465074
 H       -14.0649499340        2.8440081990      -21.3269583846
 H       -16.1768367052        8.8726205905      -15.6960189151
 H       -15.4414136425        9.9352402479      -17.0602727914
 H       -14.7476271827        9.9580967675      -15.5143438050
 H       -12.9026833699        7.5301753490      -18.2500685316
 H       -12.6722687020        8.9751619441      -17.3557022400
 H       -13.8723467178        8.8786783977      -18.6928888834
 H       -17.2578048395        6.5395957623      -10.4129213292
 H       -16.6135169541        7.5585162614      -11.6411509166
 H       -16.2355266412        7.7635312152      -10.0705540750
 H       -14.7121056908        6.5891096222       -8.7172049273
 H       -13.4868626379        5.6608086981       -9.5713925150
 H       -14.9223675583        4.7764261350       -8.8600307650
 H       -16.0749752369        2.3125282794      -15.6332959882
 H       -15.2446279759        0.8928906084      -16.4876252240
 H       -14.4599673300        2.5503054311      -16.0882409397
 H       -15.9180970314       -0.6362979175      -14.6318745706
 H       -16.8399541276        0.4917749718      -13.8522977411
 H       -15.5779550495       -0.4923659028      -13.1147273563
 H       -10.5126892862        4.1795143623      -16.2036645217
 H        -9.0553032213        3.4770290170      -17.1065941991
 H        -8.8845227920        4.3553365346      -15.7122477270
 H        -7.5603823613        1.7711315037      -15.8623530517
 H        -8.9681532010        0.8531445731      -16.5195097295
 H        -8.4511836359        0.6010200797      -14.8491504356
 H        -6.5368441849        4.1082936386       -9.4349898979
 H        -6.3252575201        3.2453446170       -7.9233261366
 H        -7.7433069215        2.9918086410       -8.7931798326
 H        -4.4200186950        3.4899078920      -10.4019391322
 H        -3.9677528043        1.8580600175      -10.6135936237
 H        -4.1439655217        2.2848991669       -9.0082272452
 H        -6.2853367431       -3.5515135434       -6.6600963062
 H        -7.0838049440       -2.0702626095       -5.9986695227
 H        -6.2485781423       -2.9966603672       -4.9312036482
 H        -5.9567428385       -0.0873281653       -5.4230473505
 H        -4.2045097410        0.1180498100       -5.2895351889
 H        -4.9472940076       -0.8784976102       -4.1233429650
 H         2.3539151121       -1.5319534617       -6.0421845826
 H         3.3616343442       -2.8311673400       -6.5709569081
 H         3.0896354465       -2.4645766323       -4.8351555181
 H         1.6345130962       -3.9298800669       -8.0694645640
 H         0.8338473717       -2.5224790330       -7.7200886212
 H         0.0012472203       -3.9931243538       -7.5091424634
 H         6.4537878426       -8.2025031855       -2.0026712934
 H         4.7254447232       -8.2359072309       -2.5026600514
 H         5.4076723497       -6.6946737842       -2.1085144587
 H         6.9595287501       -6.1574915729       -5.2757995234
 H         7.6896880130       -6.4565810127       -3.6863528098
 H         6.2740068514       -5.3896272355       -3.7933411035
 H        11.0150153087      -13.0414234728       -4.0250371867
 H         9.3839421155      -12.9065079810       -4.6257317644
 H         9.6080172390      -13.7716350232       -3.1423252227
 H        11.1998828026      -11.9290273582       -1.1950194972
 H         9.8873111541      -12.9138772502       -1.1993549896
 H         9.6434663017      -11.3289028612       -0.6732151781
 H        15.5149270366       -6.0269645460       -2.9551393490
 H        14.8017579800       -7.5431405806       -2.4569904878
 H        14.0674027365       -6.0901136893       -2.0009801634
 H        13.0754068149       -4.3456796131       -3.6432563883
 H        12.3953388174       -4.9557556090       -5.1846573845
 H        14.1227174642       -4.4851929176       -4.8782326701
 H        10.5278755873       -9.5196235333       -7.4878700444
 H        12.3365692852       -9.9396671278       -7.5336444027
 H        11.3846545861      -10.1712803696       -8.9876589582
 H        13.4609778355       -9.0378541356       -9.6814694677
 H        13.2451285626       -7.4660121723      -10.2740863456
 H        11.8540389510       -8.5563745185      -10.5992342039
 Na       10.2076952804       -8.0871368674       -5.4140829435
 Na      -12.3401907434        4.7323704053      -13.8163098151
