232

 C        10.0521683239       -6.4551218155       -9.6363534726
 C        10.6479206610       -7.2102589758       -8.3784106485
 O         9.9949733451       -6.9980159114       -7.3544332247
 C        11.9479965672       -8.1967013290       -8.4591604178
 C        12.9117633616       -7.7774306043       -7.3167440819
 O        12.4765671396       -7.5718092051       -6.1769690588
 C        14.4323101013       -7.5731705339       -7.5515541112
 C        15.0087891930       -6.7079171128       -6.4793706873
 C        14.5457177974       -7.3310659601       -5.1363063212
 O        14.8304591830       -8.4483159197       -4.7338659852
 C        13.7500062510       -6.5107449601       -4.0711008553
 C        12.4026131672       -7.3243833497       -3.7810137292
 O        11.2859521473       -6.8114890428       -3.8946332205
 C        12.5413043962       -8.6232469838       -2.9643517961
 C        11.1861232482       -9.2995747456       -2.6464572378
 C        10.7377960904      -10.4107299989       -3.6309479126
 O        10.7929493080      -10.3581720680       -4.8477150622
 C         9.9329472205      -11.6171162276       -3.0510279181
 C         8.4453012659      -10.8228876090       -3.1568689896
 O         8.3616401686       -9.8523552381       -2.4386032485
 C         7.3961628146      -11.2106803107       -4.0859151268
 C         6.3457459893      -10.0370327915       -4.4047094567
 C         6.8838057645       -8.6564134647       -4.4988368374
 O         7.9462756119       -8.5477490237       -5.1386680582
 C         5.9954957194       -7.5239658912       -4.0989009206
 C         4.6525990836       -7.3785980125       -5.0506345975
 O         4.5258321851       -8.0616735065       -6.0798874402
 C         3.6689657039       -6.3520777586       -4.6412930099
 C         2.7413401416       -5.8189006787       -5.8256769755
 C         1.5536477184       -4.8999821527       -5.3169183068
 O         0.8494474854       -5.2607013074       -4.4329106153
 C         1.3872419101       -3.4008202010       -5.9276038941
 C         0.2324913731       -2.6908118531       -5.1551045584
 O         0.3864924332       -1.5897489640       -4.5987763332
 C        -1.0843528662       -3.3021505408       -4.9985208781
 C        -2.1997800802       -2.3412594013       -5.3623223779
 C        -3.6595407899       -2.9063540863       -5.5610329816
 O        -3.8768571131       -4.0783197309       -5.4731474261
 C        -4.7923373542       -1.9709735657       -6.0726299194
 C        -4.4252569855       -1.3290966336       -7.5081298111
 O        -3.4682337078       -0.6351667450       -7.5088354816
 C        -5.3299601317       -1.6613303406       -8.7041790812
 C        -5.2093636839       -0.5415541518       -9.7902659147
 C        -6.0884991591        0.6241932426       -9.2414122691
 O        -6.6223377986        0.4536859103       -8.1617660675
 C        -5.9150940874        2.1676347997       -9.9148301323
 C        -6.5635112109        2.0235021498      -11.3317404971
 O        -6.1316707055        1.2217985755      -12.1631862894
 C        -7.7832677115        2.8465458918      -11.8110502574
 C        -7.9765369033        2.6036285189      -13.2551419386
 C        -9.4858135456        2.7646620023      -13.7314118486
 O       -10.2787324581        3.3986009406      -13.0907918352
 C        -9.7233726034        2.4130909036      -15.3027068240
 C       -11.1313489138        1.7966246724      -15.3705702773
 O       -12.0604840652        2.5157326022      -14.9779152291
 C       -11.3446955388        0.2877932197      -15.5291218839
 C       -12.8038347135       -0.0957576138      -15.5370901371
 C       -13.4914874689        0.3483627813      -14.2421557493
 O       -13.1610392090       -0.1202445391      -13.2094997796
 C       -14.9099692489        1.2104894230      -14.2760300863
 C       -14.7205491506        2.4299546732      -13.3216523919
 O       -14.2520120811        3.5126502774      -13.6926981445
 C       -15.2674635524        2.1907440441      -11.8705437565
 C       -15.1486582298        3.3051954754      -10.8482825183
 C       -15.8360434104        4.5996517236      -11.2696122369
 O       -16.9934660749        4.6313022153      -11.7045537731
 C       -15.1928933075        6.0249435256      -10.8356462175
 C       -14.1294537255        6.3467535449      -11.8723760623
 O       -13.1647724576        5.6171953333      -11.9890134868
 C       -14.2624601122        7.4119581933      -12.9528107349
 C       -14.9095378403        6.9647848809      -14.2842831102
 C       -14.0218526133        7.1085379175      -15.5434308120
 O       -12.9522373527        6.4713345691      -15.5816424831
 C       -14.5299388309        7.9062398632      -16.6875849991
 C       -15.5942621158        7.1623435367      -17.6007574603
 O       -16.7463986025        7.5818153649      -17.7587318676
 C       -15.2090509305        5.7889686476      -18.1721120092
 C       -16.3247892195        5.2192180271      -19.1270661133
 C       -15.7929595447        3.9811492360      -20.0204496077
 O       -15.3392053651        3.0528143727      -19.4267385963
 C       -15.8693204600        4.0626604986      -21.5392580552
 C       -17.3973343321        4.0222260395      -22.2329195856
 O       -17.4184047465        4.0865128518      -23.4670850025
 C       -18.5377822988        3.8486657630      -21.3253188177
 C       -15.2160598932        5.4457861364      -21.8815693166
 C       -14.9932727163        2.8376125553      -22.1636149754
 C       -15.1966143494        9.1907321153      -16.2350805696
 C       -13.3498110892        8.2994038580      -17.6196978863
 C       -16.2490679553        7.0833602429      -10.6932272852
 C       -14.5652593070        5.7990612587       -9.3834109163
 C       -15.1880275426        1.7950751389      -15.6454302008
 C       -15.9616835721        0.1526390733      -13.8394613625
 C        -9.5757843797        3.7172130527      -16.0949748622
 C        -8.6483774913        1.3590954210      -15.7175301430
 C        -6.6779372161        3.1393304998       -9.0416817263
 C        -4.4066935471        2.6588634812       -9.9533347853
 C        -6.1374574163       -2.7666013175       -5.9405230715
 C        -4.8526513600       -0.6671753628       -5.3158608498
 C         2.7053098780       -2.6010717518       -5.8367145935
 C         0.9134693105       -3.4931658468       -7.4350501102
 C         5.5544534560       -7.7088742702       -2.4539413069
 C         6.7892912565       -6.1188595934       -4.2159680604
 C         9.8766034189      -12.9020141238       -3.8509169333
 C        10.2184390583      -11.7107319733       -1.6113839678
 C        14.5604225622       -6.5767043986       -2.8125322619
 C        13.3768012194       -5.1197715635       -4.4605023422
 C        11.5228525388       -9.6114553027       -8.1298500259
 C        12.5638522878       -8.1042719535       -9.9479737948
 H        10.8266810654       -6.3339080206      -10.3955888881
 H         9.6871907639       -5.4124536945       -9.4216657934
 H         9.2805579491       -7.0431247996      -10.0626753846
 H        14.4779737842       -7.1224725262       -8.6090882345
 H        15.0475604904       -8.5010812376       -7.5113470077
 H        14.4808013365       -5.6992432945       -6.5491570753
 H        16.1159423887       -6.5948286616       -6.4735002195
 H        13.0320113103       -8.2292925465       -1.9872915234
 H        13.2992373476       -9.2714644159       -3.4210548029
 H        10.3890319670       -8.5671442987       -2.8464796148
 H        11.1946924080       -9.5240131513       -1.5693336168
 H         6.9170830152      -12.0732000930       -3.6694291686
 H         7.9040037449      -11.3926535500       -5.0533879323
 H         5.5005137757      -10.0240532114       -3.7003361334
 H         5.9361055260      -10.1820063418       -5.4316314293
 H         4.2028428405       -5.6379051172       -3.9523655825
 H         3.1447370892       -6.8619451000       -3.8020412734
 H         2.4118170149       -6.6471380472       -6.4477663147
 H         3.4205516529       -5.3228035404       -6.4900179410
 H        -1.3486815082       -3.5278303317       -3.9990156260
 H        -1.1871636148       -4.0540325925       -5.7098608634
 H        -2.0151313999       -1.7321204320       -6.2816288315
 H        -2.1074972240       -1.5513375429       -4.6249567463
 H        -6.3919141508       -1.6552585312       -8.3912242659
 H        -5.0505462633       -2.5911489217       -9.0007420236
 H        -5.3765926238       -0.8791382612      -10.8612237081
 H        -4.1862588636       -0.2453381006       -9.6691866481
 H        -7.6974805199        3.9755052662      -11.6786395933
 H        -8.5281352552        2.5403534780      -11.0855574331
 H        -7.4522420846        1.6653839459      -13.5261489875
 H        -7.3034267726        3.2757348727      -13.8320591062
 H       -10.7971186137       -0.3122501613      -14.7562659031
 H       -10.9022798317       -0.0065092210      -16.4643999012
 H       -12.9004033980       -1.2160447602      -15.6465417343
 H       -13.3218107314        0.3161700785      -16.4659559423
 H       -14.7379064669        1.2957044337      -11.5074975714
 H       -16.2398056019        1.9271311994      -12.0667405969
 H       -14.1020201357        3.4762259455      -10.6117146148
 H       -15.6939600245        3.0376557704       -9.9382646426
 H       -13.2609847467        7.8580508521      -13.1336289783
 H       -14.8459379374        8.2574069027      -12.5878333212
 H       -15.8823299255        7.4389847603      -14.2659696142
 H       -15.2479723120        5.9118803041      -14.1865514916
 H       -15.1586502452        5.0387353645      -17.3706375157
 H       -14.2588850800        5.8254937535      -18.6864242962
 H       -16.8816896140        5.9619165194      -19.7226572241
 H       -17.0477491857        4.7904951666      -18.4152915478
 H       -19.2952530478        3.2897765844      -21.9067030932
 H       -19.1014725964        4.7891138625      -21.2133862831
 H       -18.3782669083        3.5260653198      -20.3054233958
 H       -14.2323361960        5.2332307081      -22.3111703529
 H       -15.2257994966        5.9819414730      -20.9970441416
 H       -15.8140389361        5.7936560032      -22.6812762850
 H       -14.5595925625        3.0321777812      -23.1490986689
 H       -15.5111668937        1.9116632310      -22.0631525181
 H       -14.1861587269        2.7963951725      -21.5645823910
 H       -16.1948069271        8.9109619448      -16.0180969359
 H       -14.9575083577        9.9035554376      -17.0320593851
 H       -14.8296508526        9.7170577455      -15.3267184580
 H       -12.8528601469        7.4780623736      -18.0251508835
 H       -12.6808263174        8.7479751368      -16.9077973196
 H       -13.6240514838        8.9589107290      -18.4188809479
 H       -17.2533398540        6.7459069685      -10.4137771326
 H       -16.4283199308        7.6720181571      -11.5410138087
 H       -16.0891685683        7.8229861663       -9.9335926800
 H       -14.1217886716        6.7711442338       -9.1546466279
 H       -13.7738990219        5.1152465974       -9.4886486444
 H       -15.2952246238        5.4974194745       -8.5714560166
 H       -16.0466442898        2.5559434426      -15.5578749788
 H       -15.4406658996        1.0268974886      -16.3001299582
 H       -14.3635564558        2.3483968547      -16.0732547686
 H       -15.8277233433       -0.7628995864      -14.3879755969
 H       -16.9972452627        0.2848753911      -13.9577692152
 H       -15.7469278016       -0.3640648356      -12.8926780477
 H       -10.5227382707        4.1693534635      -16.0848449781
 H        -9.2523470161        3.5529489283      -17.1059790612
 H        -8.7650909803        4.3861976225      -15.7024629773
 H        -7.6501726139        1.9186145290      -15.7259974133
 H        -8.8041338430        1.0025554719      -16.7384271049
 H        -8.6266845472        0.5871887782      -14.9655053864
 H        -6.8161567523        4.1346668777       -9.4238065111
 H        -6.1361885383        3.2768093653       -8.0333871666
 H        -7.6796602876        2.7375167911       -8.6324592667
 H        -4.3422429364        3.4987138936      -10.6149771147
 H        -3.6901966814        1.9169590100      -10.3759810007
 H        -4.1117716987        2.8119409749       -8.8708615047
 H        -6.1561202091       -3.5604804458       -6.7116302250
 H        -7.0562797630       -2.2346171601       -5.8523936608
 H        -6.1627402034       -3.2247842373       -4.9075800775
 H        -5.6180257620       -0.1264393853       -5.6598228599
 H        -3.9544641207       -0.1109434214       -5.3480825399
 H        -4.9520008339       -0.9755708043       -4.2541905277
 H         2.4709779482       -1.5726528036       -6.1492981572
 H         3.3510893206       -3.0047277685       -6.6029833580
 H         3.1570726940       -2.5405129270       -4.8298225849
 H         1.5713664209       -3.8896116878       -8.1449086456
 H         0.6663462940       -2.4597999937       -7.8152890764
 H         0.1108189448       -4.1663150354       -7.4947852890
 H         6.4083398119       -8.2046860771       -2.0663745326
 H         4.6713368442       -8.3714833035       -2.4245494788
 H         5.2848542575       -6.7955945556       -1.8066990207
 H         6.7793472322       -5.9282809620       -5.2635051848
 H         7.7941374649       -6.2535591176       -3.7957700135
 H         6.2797485436       -5.3293905904       -3.7585410928
 H        10.7912438987      -12.9907187577       -4.3681057059
 H         9.1666988446      -12.8099280036       -4.7063006132
 H         9.6416711733      -13.8791750989       -3.3037448076
 H        11.2988678143      -11.7180953555       -1.3184126298
 H         9.9059051172      -12.5934627755       -1.0305425644
 H         9.7255893759      -10.8702546918       -1.0845824349
 H        15.2436824436       -5.7570196556       -2.7420259056
 H        15.1066123658       -7.4707820070       -2.6392089181
 H        13.8879628674       -6.4736633848       -1.9742139167
 H        13.1837478287       -4.4503652239       -3.6193098214
 H        12.5548248648       -5.1603824307       -5.1307054157
 H        14.1969915629       -4.5886957396       -4.9434098418
 H        10.8406548759       -9.6077660707       -7.2600123954
 H        12.3729727867      -10.2440225600       -7.9859683244
 H        10.9702595353      -10.0276672374       -9.0263869793
 H        13.2613449876       -8.9062401089      -10.0406494315
 H        13.2701333461       -7.2214673216      -10.0325087051
 H        11.7111192149       -7.9531449654      -10.6644793401
 Na       10.1030937173       -8.1041767357       -5.4540812173
 Na      -12.4183420152        4.6866701808      -13.8362361028
