232

 C        10.0801950921       -6.4444667890       -9.5152834450
 C        10.6295016048       -7.2414402279       -8.3033346133
 O        10.0784410299       -6.9859381880       -7.2807259582
 C        11.8399779248       -8.1375109202       -8.4943362511
 C        12.8452964628       -7.7667592115       -7.4009244556
 O        12.5317824301       -7.5623532349       -6.2696519609
 C        14.3598129383       -7.6074637058       -7.7058972167
 C        15.0238565420       -6.8836597139       -6.4488821261
 C        14.5648134562       -7.4074675414       -5.0602625974
 O        14.9037198548       -8.5880764230       -4.8595065509
 C        13.7314096906       -6.5009636828       -3.8882744723
 C        12.3819503858       -7.1783322994       -3.5969070058
 O        11.3119039149       -6.6568251664       -4.0434756312
 C        12.3652608475       -8.5660562411       -2.9573314800
 C        11.0318394454       -9.2329013100       -2.7804635467
 C        10.7263754987      -10.3413141063       -3.6922191300
 O        11.0310286990      -10.3817624871       -4.8741451411
 C         9.7929932448      -11.5240917260       -3.0521517243
 C         8.4018958963      -10.8099326661       -3.1046298671
 O         8.2834682283       -9.8973891321       -2.4011975578
 C         7.3117904643      -11.1852598689       -4.2115799810
 C         6.3486774705       -9.9967438767       -4.4109004208
 C         6.9485845652       -8.6110448564       -4.5510127628
 O         8.0184021962       -8.2911256141       -5.0687731428
 C         5.9936334280       -7.4964317405       -4.1485757540
 C         4.7146114650       -7.3455228497       -5.1551438718
 O         4.6230897959       -8.0186994638       -6.1049275315
 C         3.5934919997       -6.3396176884       -4.7156043208
 C         2.7955555661       -5.6888203177       -5.8296766182
 C         1.6158738542       -4.8503017577       -5.3192778502
 O         0.8315793382       -5.3232421936       -4.5039481022
 C         1.3800217996       -3.4828373011       -5.9843308631
 C         0.2812379791       -2.7667284720       -5.0331124793
 O         0.4293475052       -1.7244815531       -4.5606968949
 C        -1.1262476564       -3.5298140083       -4.9559080788
 C        -2.1322941386       -2.3778732196       -5.3068007477
 C        -3.5186539430       -2.8954987297       -5.5212269382
 O        -3.7437383746       -4.0336367754       -5.2171208549
 C        -4.7741270250       -1.9438409257       -5.9954885024
 C        -4.3939396887       -1.4851309164       -7.4806652153
 O        -3.4651209102       -0.7167183599       -7.6399128077
 C        -5.2735239456       -1.7664848832       -8.7097110924
 C        -5.1966811288       -0.6152743323       -9.7868175727
 C        -5.7922725244        0.6862777275       -9.2192045298
 O        -6.5762658743        0.6412330238       -8.3193126166
 C        -5.8907260565        2.1668184323       -9.8920262792
 C        -6.4718030605        1.9678526959      -11.3584933432
 O        -5.9639063725        1.2120388253      -12.1532744636
 C        -7.7906982724        2.7929562291      -11.7491666400
 C        -8.1026512178        2.5433980198      -13.2231245764
 C        -9.4450673011        2.9158890586      -13.7984882276
 O       -10.3310876662        3.4574049915      -13.1372933455
 C        -9.6947050791        2.4095806426      -15.2305068558
 C       -11.1573286554        1.7581115175      -15.2988538887
 O       -12.1202370368        2.4423164913      -15.1683699175
 C       -11.3303784434        0.2455927037      -15.5332345650
 C       -12.8292476379       -0.2017848942      -15.4188630116
 C       -13.5508204001        0.2921898356      -14.1627636687
 O       -13.1365729325       -0.0398678547      -13.0444530791
 C       -14.8993357862        1.1128617086      -14.2507572204
 C       -14.8199894006        2.3101541148      -13.2307889069
 O       -14.4054568140        3.3802001569      -13.5773787305
 C       -15.2050865484        2.0707914021      -11.7177280969
 C       -15.0758918888        3.3747895426      -10.8871034061
 C       -16.0134716250        4.6894547626      -11.1557284076
 O       -17.0399194062        4.5815182598      -11.7248573321
 C       -15.2600315477        6.0580703604      -10.7761348805
 C       -14.1364014067        6.3124629751      -11.9072525630
 O       -13.1328861177        5.6692467390      -11.8074723869
 C       -14.2280840237        7.5096652161      -12.9565311301
 C       -15.0131820475        6.9294961828      -14.2291647513
 C       -14.0872259103        7.0505442347      -15.4765267188
 O       -13.0425902983        6.3620862360      -15.5372626959
 C       -14.5385919011        7.9487920000      -16.6484656816
 C       -15.6604039622        7.0569739991      -17.5826972482
 O       -16.6198934719        7.6713918355      -17.9419173598
 C       -15.3280266029        5.6174773104      -18.1765022880
 C       -16.4134807670        5.0834790710      -19.1021432299
 C       -15.9274827207        3.9446241695      -19.9866300211
 O       -15.3513142455        2.9732577176      -19.5234325939
 C       -15.9133500438        4.2331449371      -21.5695322340
 C       -17.3085674482        4.1283434753      -22.2761101423
 O       -17.4313826224        4.2284609448      -23.4718511203
 C       -18.5564228546        3.8573533507      -21.3602738985
 C       -15.0937313509        5.5118990372      -21.8686545801
 C       -15.2000908304        2.9686096322      -22.3012115735
 C       -15.1690338887        9.3082260284      -16.2077253495
 C       -13.1675689117        8.2334270664      -17.4455751102
 C       -16.2807636842        7.2474890153      -10.6409384863
 C       -14.4378908028        5.9613227566       -9.4616048001
 C       -15.2859255284        1.7666781164      -15.6748141100
 C       -16.0331566086        0.2603646527      -13.8099523190
 C        -9.6602694816        3.6887423483      -16.0508158900
 C        -8.7034286225        1.3667711244      -16.0044219979
 C        -6.7406563979        3.0840643676       -9.0458343260
 C        -4.4804376404        2.6699042960      -10.0168863933
 C        -6.0430364357       -2.7609042473       -6.0339374257
 C        -4.7596257974       -0.6563148853       -5.0994447998
 C         2.7215149690       -2.7142343011       -5.8289301230
 C         0.9101590756       -3.5677914901       -7.4067123555
 C         5.5240351954       -7.6796865172       -2.7158342730
 C         6.7798374568       -6.0552679702       -4.2319996666
 C         9.8958474648      -12.8464336502       -3.9596794897
 C        10.2204138108      -11.8437840956       -1.5425708478
 C        14.6979949451       -6.3968880548       -2.5884195179
 C        13.4077901101       -5.0922328540       -4.4294746246
 C        11.4470077034       -9.7279867982       -8.2610289784
 C        12.4513074151       -7.9165141072       -9.8313925435
 H        10.8665114379       -6.3593948838      -10.3245594434
 H         9.7499228388       -5.4402394790       -9.3710745228
 H         9.2848186914       -7.1028929617       -9.9583439629
 H        14.4934041710       -7.0665515861       -8.6734450774
 H        14.8847024340       -8.5656578725       -7.7653451618
 H        14.8350283132       -5.7504310941       -6.5877239490
 H        16.1378497683       -7.1140461480       -6.3932528724
 H        12.9101252927       -8.5320123916       -2.0123525759
 H        13.0063444897       -9.1773754300       -3.6678682863
 H        10.1438783965       -8.5430415835       -2.9033633551
 H        11.0434870762       -9.5778410813       -1.7217993222
 H         6.7650664655      -12.0847424956       -3.8184819987
 H         7.8073392426      -11.3398279842       -5.2007542963
 H         5.7655232408       -9.9194518900       -3.5312507126
 H         5.6429871489      -10.1263884441       -5.3108984926
 H         4.0888815158       -5.6348976874       -4.0100766813
 H         2.9605158677       -6.7946733255       -3.9366594869
 H         2.2635673882       -6.5233427041       -6.3908427349
 H         3.4983995371       -5.2859652710       -6.5419188388
 H        -1.5122625292       -3.8896127768       -3.9815406238
 H        -1.2799521612       -4.1864058731       -5.8577123063
 H        -1.8750917369       -1.7512379454       -6.1646045544
 H        -2.0799515025       -1.6769203012       -4.5280484129
 H        -6.3161882085       -1.8504935281       -8.4072877464
 H        -4.9637062795       -2.6514209614       -9.2177969375
 H        -5.9390262453       -0.9070782538      -10.5484793513
 H        -4.1830646428       -0.7123519071      -10.2450135734
 H        -7.7137302526        3.8781244601      -11.5200255550
 H        -8.4823662875        2.4181634977      -11.0617435023
 H        -7.9186430598        1.4550499486      -13.3818838236
 H        -7.2912730385        2.8531335573      -13.9577730640
 H       -10.7528658665       -0.3334707959      -14.8457828499
 H       -10.9021473264       -0.0248522181      -16.4587487725
 H       -12.8881161045       -1.2924117698      -15.4415067986
 H       -13.4343927689        0.1235473495      -16.3201686240
 H       -14.5874831177        1.3011380215      -11.3480476857
 H       -16.1674371888        1.6482426565      -11.7606928843
 H       -14.0677663408        3.7025321652      -10.9464757335
 H       -15.3361251620        3.0511283210       -9.8096003364
 H       -13.2171058620        7.7395887106      -13.2367043107
 H       -14.6456830378        8.4153852468      -12.5343294760
 H       -15.9693025291        7.4286118497      -14.2837107946
 H       -15.3379303137        5.9038928755      -13.9886359561
 H       -14.9874724052        4.7973748033      -17.4582702169
 H       -14.5337785512        5.8619318027      -18.8520116775
 H       -16.8017124191        5.8658301685      -19.7939627533
 H       -17.2549887740        4.8085722801      -18.4786554748
 H       -19.3774154829        3.5086369401      -21.9540110752
 H       -18.9628412551        4.7681314637      -20.9011276045
 H       -18.3639805834        3.1875588658      -20.4861297182
 H       -14.2667429466        5.1512231911      -22.4342349880
 H       -14.7858290078        5.8256165954      -20.8857045164
 H       -15.6976092224        6.1394582267      -22.4815994434
 H       -15.0891336843        3.2013945865      -23.3975372986
 H       -15.8544713793        2.1164515761      -22.0977016318
 H       -14.1261002893        2.8167461677      -21.9703068129
 H       -16.2126518301        9.1461316457      -15.9487427087
 H       -14.7773089478       10.1313928225      -16.7439467080
 H       -14.8145738316        9.4718866172      -15.2198995742
 H       -12.7290826899        7.2358511649      -17.7315752909
 H       -12.4987563311        8.6488487901      -16.7312840515
 H       -13.2619683380        8.8173795017      -18.3411223819
 H       -17.1894648693        6.9971220988      -10.1158237738
 H       -16.6517861375        7.5270502371      -11.6047133675
 H       -16.0374640223        8.1936021359      -10.1202316527
 H       -13.6143312599        6.6173008463       -9.4757411977
 H       -14.2058134668        4.9579481531       -9.1269857095
 H       -15.1651615389        6.3663705269       -8.7621543421
 H       -16.0593988262        2.5084240527      -15.5203904040
 H       -15.5854241998        1.0277473068      -16.3497571536
 H       -14.4325786433        2.2622161068      -16.1914293938
 H       -16.2176542716       -0.7039195036      -14.3041630309
 H       -17.0333079524        0.7164778792      -13.9664795380
 H       -15.9378383065       -0.1246481660      -12.8536113895
 H       -10.5506064333        4.2810094115      -15.7387084479
 H        -9.7991607482        3.5404501884      -17.0940283148
 H        -8.6646556592        4.2230875330      -15.9577461503
 H        -7.7307465521        1.7736124173      -15.8417258787
 H        -8.8291092614        1.4658646693      -17.0589110578
 H        -8.7408666452        0.3228029962      -15.5390262779
 H        -6.9123633810        4.1327550925       -9.4882671406
 H        -6.2637806068        3.2701898961       -8.1280627987
 H        -7.7187557996        2.6710406028       -8.6920224249
 H        -4.4912731510        3.4318821196      -10.7702160922
 H        -3.7685139935        1.8738979174      -10.4736899903
 H        -4.0799426370        2.9730788325       -9.0143068582
 H        -5.9398862463       -3.5269142237       -6.8057356594
 H        -6.9443303246       -2.1744105990       -6.0982129242
 H        -6.2733825398       -3.1970913937       -5.0705812292
 H        -5.4748962401        0.0808702736       -5.6043475197
 H        -3.8075265145       -0.2525863111       -4.9162004554
 H        -5.1359892943       -0.9318759007       -4.1539481003
 H         2.6296972489       -1.6469698765       -6.1760027600
 H         3.5223205831       -3.2100978702       -6.4894934772
 H         2.9643070008       -2.7342712560       -4.7768978897
 H         1.6888568931       -3.9770016610       -8.0737079990
 H         0.7139899589       -2.5418594787       -7.8062348771
 H         0.1735194021       -4.3716699901       -7.6147566599
 H         6.4386521259       -7.9954951982       -2.1955948080
 H         4.7018973391       -8.4769741995       -2.7394791067
 H         5.0820969126       -6.8444169481       -2.2178617189
 H         6.6911039985       -5.8387706397       -5.2430082347
 H         7.7817148688       -6.1369565944       -3.7841981289
 H         6.1934509243       -5.2607297235       -3.7388027238
 H        10.9549361178      -12.9162880390       -4.2917198974
 H         9.3396556438      -12.9259553076       -4.9312727013
 H         9.6823836358      -13.7093790018       -3.3641182191
 H        11.2924530144      -12.1462551619       -1.4496970916
 H         9.7627040071      -12.6941432584       -1.0517187657
 H        10.0746427828      -11.0058930411       -0.8343497774
 H        15.2558276164       -5.5040733728       -2.6534387903
 H        15.3857514299       -7.2105659550       -2.5690752168
 H        14.2451826239       -6.4047734178       -1.5507179247
 H        12.9292935809       -4.5006245672       -3.6485583999
 H        12.8816991869       -5.0934102126       -5.3470837600
 H        14.3423814156       -4.5270013341       -4.6034801415
 H        11.3037171301       -9.8873765898       -7.2302453124
 H        12.2072920120      -10.3658807466       -8.6775792842
 H        10.5141790598       -9.9422432211       -8.7632562534
 H        13.3562889877       -8.5620887545       -9.7613712078
 H        12.8630651141       -6.9320526594       -9.9269163949
 H        11.7077892782       -8.1092399928      -10.6204201353
 Na       10.0720395696       -8.1383880086       -5.4228571659
 Na      -12.3347760060        4.6220799991      -14.0013800072
