232

 C         9.9667677994       -6.3552627307       -9.4918351418
 C        10.5607884871       -7.1705443902       -8.3053616598
 O        10.0639181138       -6.9910755225       -7.2118058786
 C        11.8770547778       -8.0881487409       -8.5992304211
 C        12.8421236592       -7.7423579543       -7.3897528445
 O        12.3770705948       -7.6837312442       -6.2640397740
 C        14.3432826148       -7.5471019782       -7.6359951340
 C        15.0490515974       -6.9215648864       -6.4172409619
 C        14.5547501437       -7.5361508419       -5.0295189517
 O        14.8265009320       -8.6552115075       -4.7509485981
 C        13.8203513076       -6.4592799037       -3.8695699216
 C        12.4381003684       -7.0965095581       -3.5822211014
 O        11.4484894615       -6.5688096867       -4.0692252242
 C        12.3465132288       -8.5484296009       -3.0053282330
 C        10.8991245324       -9.0770943800       -2.8005669909
 C        10.6695663946      -10.3981606887       -3.6722336827
 O        11.1666755228      -10.3862682273       -4.8159909395
 C         9.8205075966      -11.4698949963       -3.0990749353
 C         8.3792323246      -10.7928955711       -3.0889584987
 O         8.0081153521       -9.8990000947       -2.3104292007
 C         7.4354830676      -11.0711460331       -4.3038135320
 C         6.3562367950      -10.0168563760       -4.4214073559
 C         6.8600579340       -8.4435531660       -4.6989614246
 O         8.0130888424       -8.2699036676       -4.9588730767
 C         5.9147140661       -7.3235399901       -4.2091961473
 C         4.7447563052       -7.2568679078       -5.1708778371
 O         4.7108631090       -7.9772410467       -6.1481058906
 C         3.5488488930       -6.3270496123       -4.7409841020
 C         2.8752509834       -5.7881607503       -5.9184470085
 C         1.6485075795       -5.0415672723       -5.4143879289
 O         0.9072438406       -5.4559027482       -4.5192162400
 C         1.4317956370       -3.5902123492       -5.9074407703
 C         0.2749278893       -2.8472255253       -5.0841157496
 O         0.5539367965       -1.8222375118       -4.4367359825
 C        -1.1044162339       -3.4874209180       -5.0632423462
 C        -2.1577835000       -2.3062043753       -5.2730254016
 C        -3.4738732221       -2.9341239565       -5.4035578151
 O        -3.7880408379       -4.0710977950       -5.0311251866
 C        -4.6549285393       -1.9811674076       -6.0287532049
 C        -4.3535098618       -1.3770531583       -7.4871017138
 O        -3.2761366168       -0.7901397660       -7.7731420363
 C        -5.2568816722       -1.7864046380       -8.7197819230
 C        -5.2678072976       -0.5654927750       -9.7600880001
 C        -5.9415054661        0.6397622493       -9.2023737884
 O        -6.5647495054        0.6490816803       -8.1550386282
 C        -5.8089793501        2.1389703292       -9.9522809255
 C        -6.4301951341        1.9237632190      -11.3503485227
 O        -5.8276773909        1.2281720576      -12.1386368854
 C        -7.7446738263        2.6526743521      -11.7025876214
 C        -8.1280229047        2.3343889169      -13.1891404880
 C        -9.4553585426        2.7658788373      -13.7756631293
 O       -10.2596172231        3.5635156881      -13.2651914748
 C        -9.8120517211        2.4032397625      -15.3390050121
 C       -11.2381763634        1.7251282878      -15.3226385011
 O       -12.2063718729        2.4587791927      -15.3002936192
 C       -11.3880278113        0.2351924545      -15.4581881712
 C       -12.8619318725       -0.2358572801      -15.3485313095
 C       -13.6410062020        0.2767915885      -14.0678212409
 O       -13.1446115640        0.1179974371      -12.9627459974
 C       -14.9855262088        1.0604086396      -14.1090342749
 C       -14.8592424236        2.2933263080      -13.1080865630
 O       -14.4999902277        3.3944370022      -13.4881003564
 C       -15.2308953940        2.1882055078      -11.6166696381
 C       -14.9677839761        3.4785309445      -10.9084450257
 C       -15.8988310597        4.6174861412      -11.2213308953
 O       -17.0034136153        4.6239785493      -11.6587001372
 C       -15.2387009144        6.1221390090      -10.7647066657
 C       -14.1417558647        6.3644089089      -11.8008017664
 O       -13.1202737758        5.6458095717      -11.8062529772
 C       -14.2983809496        7.3728840306      -12.9036246984
 C       -15.0695794820        6.8836523447      -14.1935157472
 C       -14.2311960029        6.8996946350      -15.3842767647
 O       -13.2110929694        6.2324589545      -15.4313776797
 C       -14.5039158102        7.8055876397      -16.5821740296
 C       -15.5272224460        7.1161600978      -17.7554115022
 O       -16.5028010412        7.7222046700      -18.0199859626
 C       -15.3396689406        5.6733228363      -18.1412722823
 C       -16.4828260715        5.0601173615      -19.0665657735
 C       -15.8787988144        3.9739217002      -20.0664593841
 O       -15.4634539446        2.9088776055      -19.6115762009
 C       -15.8705619508        4.2443660005      -21.5843764440
 C       -17.3108227035        4.3040131716      -22.2295177278
 O       -17.4359556619        4.4439736160      -23.4042045429
 C       -18.5895342897        3.9099888355      -21.4062023904
 C       -15.0427099498        5.5681606271      -21.9295780251
 C       -15.3053159799        3.0497112158      -22.3327223518
 C       -15.0947188585        9.1944106547      -16.2161997373
 C       -13.1532653893        8.1059782940      -17.3669393164
 C       -16.3164378898        7.2457505343      -10.7476926288
 C       -14.4163336370        6.1209930722       -9.4285063538
 C       -15.2306434533        1.6523483667      -15.5702872842
 C       -16.1978957447        0.1801842373      -13.8335879612
 C        -9.8384113608        3.7502229766      -16.1456811314
 C        -8.7343884442        1.4855699727      -16.0489149432
 C        -6.7256708905        3.0027288469       -9.1143231175
 C        -4.3360394761        2.7345823965      -10.1809648381
 C        -5.9237316553       -2.7315769661       -6.0389127020
 C        -4.7679263617       -0.7786668678       -4.9597035826
 C         2.7044524945       -2.6660064184       -5.8048022487
 C         0.9363230966       -3.6428587737       -7.3421212839
 C         5.4397201222       -7.5887839038       -2.8137585710
 C         6.7481194578       -5.9854879826       -4.2623056570
 C         9.9864639493      -12.7676904278       -4.0015547074
 C        10.1095540335      -12.0391981257       -1.7519325761
 C        14.7032579501       -6.3162954434       -2.5726444625
 C        13.5695163186       -5.0382687250       -4.3962707296
 C        11.3555863570       -9.6443972562       -8.4157919082
 C        12.4916519074       -7.9815984591       -9.9827190289
 H        10.7164921540       -5.9565108881      -10.1742777932
 H         9.4282124838       -5.4422835865       -9.2156331897
 H         9.2910636448       -7.0652157520      -10.0722984616
 H        14.5293192100       -7.0209547763       -8.5184401137
 H        14.7515803774       -8.5578683591       -7.7474072859
 H        14.8675813170       -5.8779755141       -6.5540217751
 H        16.1359453660       -7.1443663896       -6.4236816133
 H        12.9064978797       -8.6412422547       -2.1367962537
 H        12.8531124275       -9.1627296600       -3.7775480608
 H        10.1439514684       -8.2984820724       -3.0740893693
 H        10.8322964378       -9.2542823474       -1.7247995417
 H         6.8894263847      -12.0254827236       -4.0016062555
 H         7.9430501279      -11.1108887621       -5.2699902813
 H         5.7914004941      -10.0390524700       -3.4553276935
 H         5.7246810646      -10.3610539368       -5.2341492882
 H         3.9399428081       -5.5857620746       -4.0806689957
 H         2.8483177432       -6.7640948188       -4.0314350832
 H         2.6416552196       -6.6236415973       -6.6206429335
 H         3.6236953832       -5.1269370261       -6.4714334616
 H        -1.2369909259       -3.7856411746       -3.9714355795
 H        -1.3738326932       -4.2273260891       -5.8741120425
 H        -2.0480501301       -1.7267006980       -6.1676207621
 H        -2.0498785276       -1.5666245327       -4.4606412065
 H        -6.2419893631       -2.1099373883       -8.4944524675
 H        -4.6669792703       -2.6020884402       -9.3484415437
 H        -5.7075413760       -0.8983968267      -10.6750352169
 H        -4.1721371581       -0.4223695828       -9.9584347201
 H        -7.4765394347        3.6456620796      -11.5766578052
 H        -8.5571550443        2.4883359602      -10.9659662642
 H        -7.8589633991        1.2803958544      -13.3598043049
 H        -7.4804580041        2.7212444964      -13.9814669884
 H       -10.7827059552       -0.2440551622      -14.7154898571
 H       -10.8724049700       -0.1388061145      -16.3832419786
 H       -12.9033062362       -1.3107415532      -15.3483792077
 H       -13.3741078964        0.0619221816      -16.2063042955
 H       -14.6623314854        1.3770344391      -11.2073656432
 H       -16.3385491680        1.7852470528      -11.5432544114
 H       -13.9862219280        3.8839192374      -11.2554258344
 H       -14.9356338228        3.2266142828       -9.8204480854
 H       -13.2757568211        7.5605703649      -13.2106096472
 H       -14.7021863027        8.3043815710      -12.4912223828
 H       -15.9544451410        7.5312719154      -14.2676315652
 H       -15.5046372743        5.9168119202      -13.9899298388
 H       -15.3159220403        5.1825455007      -17.1604000062
 H       -14.3828557737        5.5000147891      -18.6775379487
 H       -17.0543040320        5.8354129874      -19.5650672145
 H       -17.1940260407        4.5813642009      -18.3842768719
 H       -19.5124782768        3.7487370785      -21.9451535367
 H       -18.8820091290        4.4934606995      -20.5353974125
 H       -18.2108945255        2.9475936698      -20.9702540411
 H       -14.3344733137        5.3154746254      -22.6753692431
 H       -14.5742004993        5.7328447960      -20.9490067218
 H       -15.8045775269        6.2703698966      -22.2802552941
 H       -15.5024623290        3.3380427867      -23.3692819893
 H       -15.9276171771        2.1429019736      -22.0477588054
 H       -14.1295098522        2.9357367085      -22.3472951108
 H       -16.1306307394        9.0601001149      -15.9783087802
 H       -14.7200688765        9.9652667974      -16.8262559185
 H       -14.7771712237        9.3979777599      -15.2162573227
 H       -12.6778984613        7.1628647338      -17.7412729316
 H       -12.4121985510        8.6950089738      -16.8028590116
 H       -13.5274754446        8.6211181403      -18.2669754985
 H       -16.8882538449        7.2366126528       -9.8436150075
 H       -17.1176181666        7.2372303838      -11.5600402207
 H       -15.9579597017        8.2817701335      -10.6675653883
 H       -13.3989464767        6.4827064520       -9.4982763590
 H       -14.5460359331        5.1533596838       -8.9019927658
 H       -14.9605939187        6.7775052935       -8.8235523988
 H       -16.0278147649        2.2902627731      -15.6244825854
 H       -15.3522397597        0.7642886031      -16.3460949035
 H       -14.3406341309        2.1174608605      -15.9688541612
 H       -16.5749796813       -0.4878014152      -14.6080582510
 H       -17.1156831635        0.7725718326      -13.7131211258
 H       -16.1408584764       -0.4984861836      -12.9896796818
 H       -10.3565300768        4.5704438510      -15.5560945009
 H       -10.4357103545        3.7830774372      -17.1383731961
 H        -8.8242661980        3.9618205934      -16.3557278935
 H        -7.8126178288        1.9616547986      -15.8531697165
 H        -8.7960639487        1.5505909668      -17.1407082403
 H        -8.7179558539        0.4996366044      -15.5998903588
 H        -6.7707420729        4.0458898099       -9.4811169249
 H        -6.4177920437        3.0681865229       -8.0968510273
 H        -7.6968821963        2.6564617922       -9.0766113568
 H        -4.5030367488        3.7029977715      -10.7751313361
 H        -3.6398203022        2.1620495159      -10.7529128387
 H        -3.9472412245        2.9395558291       -9.2051547445
 H        -5.9524132712       -3.6169015926       -6.6326310045
 H        -6.6836265210       -1.9683285068       -6.2293140774
 H        -6.2451887762       -2.9229040597       -5.0735379777
 H        -5.4617962638       -0.0385445293       -5.4810701816
 H        -3.7913895823       -0.3168116668       -4.6166510534
 H        -5.2678384489       -1.1233791248       -4.0799496957
 H         2.4665751538       -1.6602199404       -6.2001312469
 H         3.5119283192       -3.0667467546       -6.4669197928
 H         3.0166385615       -2.6248571459       -4.7391310795
 H         1.7526039353       -4.1425974991       -8.0124239583
 H         0.7950362332       -2.6724361049       -7.7582167987
 H         0.2028954560       -4.4739683116       -7.5791040426
 H         6.2952743478       -7.7113397382       -2.0885069969
 H         4.7434430166       -8.3932478285       -2.9161097944
 H         4.8241811328       -6.8070006918       -2.4329563120
 H         6.9010023627       -5.6666908302       -5.3384584745
 H         7.5689786344       -6.2829032257       -3.6613645625
 H         6.2153067152       -5.1337222088       -3.7591227503
 H        11.0751949072      -13.0878901382       -4.0286826369
 H         9.7252392864      -12.7246066914       -5.0424160150
 H         9.4459639953      -13.5108793305       -3.5016893729
 H        11.0640015400      -12.4876365078       -1.6418671718
 H         9.4531925670      -12.8784475460       -1.5370336934
 H        10.0351231984      -11.3397898305       -0.9252612365
 H        15.3760723200       -5.4246670345       -2.6796970092
 H        15.3235638619       -7.2311691909       -2.4571971878
 H        14.2178521163       -6.1850044552       -1.6120852272
 H        12.8075640160       -4.5814049027       -3.7772562377
 H        13.3045419471       -5.0469061685       -5.4942941879
 H        14.4228449422       -4.3732193716       -4.3518137387
 H        11.5763342773      -10.0242171751       -7.4423920737
 H        11.8662588105      -10.2559873638       -9.1570997774
 H        10.3284595419       -9.7459021486       -8.5311376311
 H        13.5738414340       -8.2165743722       -9.9415135148
 H        12.4177725655       -6.9823025726      -10.3008280879
 H        11.9129046001       -8.5720434076      -10.6413366039
 Na       10.2521329057       -8.1891885998       -5.3292126420
 Na      -12.3002329176        4.5305544542      -14.1336497095
