232

 C         9.8869143447       -6.2767192183       -9.5381693936
 C        10.5469855952       -7.0351105841       -8.4315057711
 O        10.0281513929       -7.0746697849       -7.3070972128
 C        11.7937820103       -8.0312108745       -8.6843401381
 C        12.8258019361       -7.8120892847       -7.4193624082
 O        12.3827484606       -7.8764908041       -6.2671723488
 C        14.2924506683       -7.5283613260       -7.5069312441
 C        15.0165990869       -6.9140252203       -6.2737470195
 C        14.6097868607       -7.4417987839       -4.9346109525
 O        14.6458621263       -8.5850938323       -4.5566227925
 C        13.9353947769       -6.4734274926       -3.9511744575
 C        12.4887940728       -7.1323407823       -3.7500708390
 O        11.5189248900       -6.5011011004       -3.9802815233
 C        12.4187755695       -8.4880992377       -3.0212534261
 C        10.9319145326       -8.9321009249       -2.7496478067
 C        10.6978982885      -10.3786482540       -3.5657848340
 O        11.1817037628      -10.3571483011       -4.7002281848
 C         9.7055817179      -11.5092519441       -3.0877708000
 C         8.3342292890      -10.7556837861       -3.2115317567
 O         7.9727642179      -10.1203161140       -2.1993925399
 C         7.4867546345      -10.8859843967       -4.5273128577
 C         6.3222096143       -9.9265840168       -4.5490595500
 C         6.9118025084       -8.4824358084       -4.4765373935
 O         8.0337657192       -8.3405066971       -4.9451789831
 C         5.9684894019       -7.3224763280       -4.1445744336
 C         4.8180745373       -7.2535309673       -5.1790486916
 O         4.6684559283       -7.8929294793       -6.2710819404
 C         3.5885181347       -6.3963618687       -4.8410938954
 C         2.7840165432       -5.8435454612       -6.0298561852
 C         1.6676339415       -5.0544219831       -5.3964557275
 O         1.0316423778       -5.6899590382       -4.6073716212
 C         1.4546160401       -3.5640770934       -5.9001674980
 C         0.3244156910       -2.9063678322       -5.0155000996
 O         0.6832146067       -1.8941316809       -4.3248136954
 C        -1.0086267792       -3.4433774095       -5.1089842963
 C        -2.1206930579       -2.3000348161       -5.3014893181
 C        -3.5549801126       -2.9046594411       -5.3988796279
 O        -3.8793765779       -3.9592327005       -4.9425854005
 C        -4.7269967165       -1.9706840773       -6.0847802590
 C        -4.1505671088       -1.4606632488       -7.5225161359
 O        -3.1201310129       -0.8474081372       -7.7112621241
 C        -5.1362165961       -1.7107289411       -8.6571077480
 C        -5.1826068891       -0.4759617515       -9.7049856301
 C        -5.9513145137        0.6983396155       -9.0810213045
 O        -6.5438223020        0.5808656884       -8.0096079451
 C        -5.8777154437        2.0873336708       -9.9009808016
 C        -6.3884396561        1.8881585637      -11.4483622004
 O        -5.7713686406        1.1913998155      -12.2556390126
 C        -7.8010055361        2.4877418953      -11.8419543774
 C        -8.1544355402        2.1044635612      -13.3110980215
 C        -9.4469141605        2.7702484507      -13.8578764951
 O       -10.0902678217        3.6038320611      -13.2767815696
 C        -9.8451895749        2.4527861122      -15.3985104923
 C       -11.3075272535        1.7389239247      -15.4707222566
 O       -12.2894539171        2.4899516238      -15.3641854247
 C       -11.5324230583        0.2334325531      -15.2786726904
 C       -12.9660049830       -0.2170882291      -15.2011654841
 C       -13.6369226464        0.3468923375      -13.9258457767
 O       -13.0970792473        0.2048177008      -12.8920611480
 C       -15.0912478383        1.1061795399      -14.0625510199
 C       -14.9667726620        2.3103239451      -13.1322681597
 O       -14.4935392857        3.3934983662      -13.5500735194
 C       -15.3301535093        2.2603414127      -11.6013226017
 C       -14.8348426997        3.5291441960      -10.8149796754
 C       -15.7054764154        4.7699676822      -11.0839027519
 O       -16.8308739691        4.6331826780      -11.5779498763
 C       -15.2412466865        6.1836131456      -10.6975129149
 C       -14.0697595004        6.3290315629      -11.9336310921
 O       -13.0905437032        5.5580345238      -11.9385517922
 C       -14.3555979199        7.3866488874      -13.0154175346
 C       -15.2148860925        6.8608206855      -14.1495836788
 C       -14.2834394966        6.7248960662      -15.4170456141
 O       -13.3191253229        6.0032183661      -15.3652305471
 C       -14.5267995509        7.6856395054      -16.6975654315
 C       -15.5703083092        7.1153557958      -17.6397676970
 O       -16.4014170554        7.8676993400      -18.1622128158
 C       -15.2348886928        5.6112448318      -18.0628160462
 C       -16.3390154780        5.0889400697      -19.0598636286
 C       -15.8576619160        4.0084351721      -20.1080317999
 O       -15.6180608596        2.9098973638      -19.6664227783
 C       -15.9321529333        4.2575314957      -21.6270666597
 C       -17.3442781289        4.3926174529      -22.1939578562
 O       -17.4863052768        4.8101741621      -23.3410408061
 C       -18.5765475457        3.9570913822      -21.4022492397
 C       -15.0855958984        5.6499279074      -21.9434479248
 C       -15.2372285706        3.0259573323      -22.3367619030
 C       -15.0761112726        9.0479090664      -16.2022522837
 C       -13.1449814900        7.9215678312      -17.3818458845
 C       -16.3325956314        7.0962264554      -10.8717442832
 C       -14.5395062665        6.1979583816       -9.2745237414
 C       -15.2102406730        1.6191154591      -15.4899235683
 C       -16.2829120549        0.0963349260      -13.7727418978
 C       -10.0289968959        3.7601247656      -16.1763075920
 C        -8.7566039515        1.5705089545      -15.9969196308
 C        -6.6181269680        3.1315813401       -9.1039166759
 C        -4.4400278387        2.6201515286      -10.1841265342
 C        -6.0039612627       -2.7720011035       -6.0284682290
 C        -4.7546163455       -0.8411171406       -5.0282466675
 C         2.6824732061       -2.6501926205       -5.7895475077
 C         0.9921208247       -3.7000341215       -7.4433863922
 C         5.3709514819       -7.4826982081       -2.7011324062
 C         6.7647610381       -5.9142515360       -4.3154104335
 C         9.9249461021      -12.6247280778       -4.2048643743
 C        10.0156659825      -12.0461093391       -1.7282097618
 C        14.6986787343       -6.4520100043       -2.6622827943
 C        13.7487293700       -5.0288377297       -4.4322194266
 C        11.2863371814       -9.4232537508       -8.4547778346
 C        12.4823857972       -7.9833233419      -10.1003455816
 H        10.3716731647       -5.4703383267      -10.0215941856
 H         9.0507396106       -5.7462127922       -9.0014511947
 H         9.4613393488       -6.9797897451      -10.2043239705
 H        14.5264416488       -6.8639272525       -8.2997394391
 H        14.7291393175       -8.4851863053       -7.7339476124
 H        14.8108769151       -5.9102093685       -6.4178350302
 H        16.0441441397       -7.0718143600       -6.4270988502
 H        12.9768196395       -8.2877172466       -2.0976992789
 H        12.9353909091       -9.2274149976       -3.5499439397
 H        10.3052534337       -8.1621600930       -3.1462063343
 H        10.7548552659       -8.9172072131       -1.6860841601
 H         7.1455855851      -11.9066567356       -4.5252021583
 H         8.1092564078      -10.6119435656       -5.3845246564
 H         5.5701598691      -10.1361843404       -3.7231243958
 H         5.8851858467       -9.9346820242       -5.5075103079
 H         3.8415928950       -5.7095424631       -4.0629193503
 H         2.9298888422       -7.0230506182       -4.2544941777
 H         2.3940237430       -6.6593291245       -6.6238363723
 H         3.4251100826       -5.1983073719       -6.6972856146
 H        -1.0816744471       -3.9539134110       -4.1247164117
 H        -1.1529405852       -4.0583817594       -5.9684615249
 H        -1.8718788457       -1.6339857581       -6.1414052790
 H        -2.1128330620       -1.6309039018       -4.3727204711
 H        -6.1819746320       -1.7011360309       -8.2485632231
 H        -4.9581198892       -2.6535115575       -9.2556484251
 H        -5.6421519450       -0.9133271255      -10.5963216644
 H        -4.1713463362       -0.2279747677       -9.9607031262
 H        -7.7627135555        3.5533157456      -11.6791459374
 H        -8.6199132024        2.1132371100      -11.1586484887
 H        -8.1673426594        1.0224533297      -13.3319679511
 H        -7.4644749460        2.2318325463      -14.0846529900
 H       -10.9215684828       -0.0832856956      -14.3658660634
 H       -10.9819327534       -0.3631668702      -16.0769777817
 H       -13.0069529787       -1.2845362920      -15.0904336042
 H       -13.4380821135        0.0157499662      -16.1125073462
 H       -14.8843665879        1.2623057361      -11.1772777998
 H       -16.4551447636        2.1234718429      -11.4255331206
 H       -13.7421619118        3.8184422943      -11.0748285679
 H       -14.9322042774        3.2156540105       -9.8142660067
 H       -13.3547712351        7.7228287591      -13.4361108023
 H       -14.7734188742        8.2165654707      -12.4085775818
 H       -16.1440427082        7.4445570240      -14.1942915645
 H       -15.5449799812        5.8639343727      -13.8458308527
 H       -15.2212308378        5.0929595467      -17.1371129678
 H       -14.2316725398        5.5472940412      -18.5629170719
 H       -16.8085721175        5.9568685764      -19.4800836486
 H       -17.1370041062        4.6386861805      -18.4463265753
 H       -19.6193451773        4.2543014215      -21.7350315287
 H       -18.4680445146        4.4205025825      -20.4117341500
 H       -18.4996980567        2.8743231689      -21.2213727388
 H       -14.6468915380        5.4641085761      -22.9441921968
 H       -14.3432239188        5.7107094366      -21.1733545074
 H       -15.9012202348        6.3716935331      -21.9816477090
 H       -15.3306887233        3.1582829263      -23.4341939248
 H       -15.7322347690        2.0841313627      -21.9731112175
 H       -14.2082799835        3.1038079560      -22.1755355218
 H       -16.0435237331        8.8618274290      -15.8512397776
 H       -14.9836459053        9.7780276608      -17.0302808000
 H       -14.6357050640        9.4552674836      -15.2651063773
 H       -12.6582153077        6.9948081297      -17.5935794399
 H       -12.5184462980        8.5225815373      -16.6480818897
 H       -13.3016864641        8.4736931315      -18.3435418098
 H       -16.7417666647        7.3922251693       -9.8840124214
 H       -17.2312303269        6.8390170714      -11.4478427818
 H       -16.0193970423        8.0816408255      -11.1443661414
 H       -13.4327641139        6.1341236409       -9.3930108225
 H       -14.9471319076        5.3483317223       -8.7707355259
 H       -14.8015258659        7.0748703514       -8.6392504466
 H       -16.2019843323        2.1840291658      -15.6542386693
 H       -15.1359594011        0.8524955253      -16.2536666694
 H       -14.3728798003        2.2510892498      -15.7438815239
 H       -16.7283960639       -0.4624160649      -14.5694523590
 H       -17.1770080656        0.4997573715      -13.3759861984
 H       -15.9785596808       -0.6973809274      -13.0004539563
 H       -10.2468875118        4.5821617447      -15.5229294621
 H       -10.9209082636        3.8273442003      -16.8821534327
 H        -9.1068325988        3.9125989326      -16.7332717655
 H        -7.7817359987        2.0917370882      -16.0886897110
 H        -9.0520245299        1.3704859205      -17.0216083235
 H        -8.7030861633        0.7419895983      -15.4071768502
 H        -6.4322437338        4.0350592543       -9.4826568313
 H        -6.2985280610        3.1792323803       -8.0408106512
 H        -7.6783320552        3.0664795929       -9.1419962244
 H        -4.5102619948        3.6777615017      -10.5127893817
 H        -3.9270865589        2.1065780116      -10.9199850486
 H        -3.9226150454        2.5710357300       -9.2482676797
 H        -5.8967454196       -3.6905987479       -6.5708984584
 H        -6.8092661861       -2.1457880808       -6.3115456633
 H        -6.3185441366       -3.0066323790       -5.0077574791
 H        -5.5358414707       -0.2095875012       -5.2890734306
 H        -3.7613422932       -0.3110167388       -4.8531443868
 H        -5.0603751241       -1.3344006095       -4.0131102311
 H         2.4496806602       -1.6738421043       -6.1632714237
 H         3.3898864961       -3.0537770596       -6.4473142123
 H         3.0736350538       -2.6433535888       -4.7462421231
 H         1.6880896443       -4.2580536125       -8.0903961479
 H         0.8282642212       -2.7359567830       -7.9410700579
 H         0.2450812136       -4.4480049218       -7.5563967539
 H         6.0944758144       -7.5308865571       -1.9243608423
 H         4.6324914498       -8.2055554331       -2.7224305168
 H         4.7802659821       -6.5418604554       -2.4822276122
 H         7.1137382181       -5.6149287671       -5.3547045452
 H         7.4273525656       -6.0325492273       -3.4690197848
 H         6.0562671765       -5.1614725600       -4.0098216551
 H        10.7354298714      -13.2741090029       -4.0657520335
 H        10.1002667221      -12.1411680909       -5.1298582006
 H         8.9963271389      -13.2427184234       -4.2503570839
 H        10.9736506469      -12.4778579901       -1.6251719503
 H         9.3362412735      -12.8206581513       -1.4094309618
 H        10.0373631225      -11.2625562517       -1.0058746754
 H        15.6222555623       -5.7912547806       -2.7165232881
 H        14.9350811057       -7.4785531779       -2.2664479972
 H        14.1287603005       -5.9500792534       -1.9016997689
 H        13.0255735668       -4.5226249181       -3.7765321171
 H        13.3802539194       -5.1200683668       -5.4853866658
 H        14.6411783152       -4.4103764405       -4.5530370222
 H        11.6167534244       -9.9305359068       -7.5345138468
 H        11.7346249504       -9.9810652692       -9.2554931821
 H        10.1989381428       -9.5721770785       -8.4441608780
 H        13.4542070244       -8.3876653553      -10.0737858905
 H        12.4965959402       -6.9127517331      -10.3482620400
 H        11.8750699296       -8.5294535412      -10.8309244130
 Na       10.4653399291       -8.2378193153       -5.2491908717
 Na      -12.3685914453        4.4253134903      -14.1245347413
