232

 C        10.0610381745       -6.2374298455       -9.6146162436
 C        10.4890693741       -7.0042839288       -8.4070122781
 O         9.8292081137       -7.0524174695       -7.3988533727
 C        11.7374149381       -7.9605103682       -8.6921021229
 C        12.8966982614       -7.9437665996       -7.4722652478
 O        12.5842827618       -8.1505341018       -6.3252030710
 C        14.3297603864       -7.5584465014       -7.7397765786
 C        15.0277914907       -7.0036933945       -6.4152711136
 C        14.5460445125       -7.5191961505       -5.0381558313
 O        14.8815063484       -8.6035548366       -4.6808353924
 C        13.8307415373       -6.4658291800       -3.8057468970
 C        12.4041633969       -6.9833505684       -3.5005049106
 O        11.3528361729       -6.4953839883       -4.0077097028
 C        12.3255690715       -8.3161376081       -2.6908595067
 C        11.0454187444       -9.1704762992       -2.3744751508
 C        10.7794148491      -10.2122618876       -3.5600363676
 O        11.2456672328      -10.1263550045       -4.6761472340
 C         9.6610824297      -11.4154281754       -3.2521620070
 C         8.2530119809      -10.7713229532       -3.2647301292
 O         7.5907278011      -10.4459496243       -2.2980965686
 C         7.5778478023      -10.8563890979       -4.6180598905
 C         6.4484239974       -9.8268524429       -4.6017363122
 C         7.0286829274       -8.4234811075       -4.5377487547
 O         8.1755360365       -8.0461706062       -4.6213887487
 C         6.0371619044       -7.1800030603       -4.1772731022
 C         4.9008456636       -7.2664020038       -5.2989946841
 O         5.0957696351       -7.8978573038       -6.2796330586
 C         3.6883025782       -6.4617901911       -4.9330090766
 C         2.8337557370       -5.9395703413       -6.1171318321
 C         1.6400225282       -5.0752284089       -5.5573615914
 O         0.8361379574       -5.5491561082       -4.7449269724
 C         1.4845695256       -3.5897917274       -6.0075291963
 C         0.4618941136       -3.0454750367       -4.9929614702
 O         0.6250850982       -2.1832754052       -4.1771683987
 C        -1.0659884295       -3.5093387214       -5.0553566848
 C        -2.0671850951       -2.3655295073       -5.2120132287
 C        -3.5333261151       -2.8530236626       -5.2199652186
 O        -3.8603023973       -3.9927724155       -4.8577087310
 C        -4.6672550686       -1.9466055215       -6.0206149191
 C        -4.1847016283       -1.5221571902       -7.4425572543
 O        -3.0482284165       -1.0146606102       -7.5771702335
 C        -5.0611343977       -1.6429317660       -8.7237971761
 C        -5.0206182297       -0.3659031269       -9.5612951579
 C        -6.0198588214        0.6936894888       -9.1580917682
 O        -6.4643427591        0.8002235593       -8.0254155399
 C        -5.9139019504        2.0470833351      -10.0384495741
 C        -6.5473892830        1.8189004651      -11.4442115045
 O        -5.8624491930        1.1854273872      -12.2088017639
 C        -7.9894987530        2.2404234006      -11.8673844064
 C        -8.3078527467        1.8156503255      -13.2537710171
 C        -9.4505600558        2.6789357209      -13.9655793771
 O       -10.0070436608        3.6245651140      -13.3873654812
 C        -9.9648845438        2.3956959215      -15.4344441616
 C       -11.3312689012        1.7733046686      -15.3101841130
 O       -12.3458674897        2.4156142875      -15.4114928635
 C       -11.4074899847        0.2505598233      -14.9836085504
 C       -12.8938926916       -0.1206944038      -14.9505022022
 C       -13.7055128030        0.5242530884      -13.8532118474
 O       -13.2855074787        0.4725855480      -12.6853680860
 C       -15.1202251841        1.1602105578      -13.9890567533
 C       -14.9276017562        2.4056908507      -13.0321240144
 O       -14.5806973976        3.4716531948      -13.4883916529
 C       -15.3028457171        2.2506265030      -11.6309419910
 C       -14.7905988677        3.3838311367      -10.7588685045
 C       -15.5787791408        4.6068644614      -11.0858362067
 O       -16.6953742949        4.5060559618      -11.5258091652
 C       -15.0676815449        6.0793595865      -10.7907375176
 C       -14.1007466415        6.3580712396      -11.9223687880
 O       -13.1652138514        5.6037284760      -12.0417178840
 C       -14.3476678549        7.4869321243      -13.0544227381
 C       -15.1446651009        6.6185387515      -14.1525101248
 C       -14.3940652999        6.5517908877      -15.4181462773
 O       -13.5749527136        5.6380937055      -15.5826652954
 C       -14.5254364214        7.5540816561      -16.6423799704
 C       -15.4043233650        6.9674720026      -17.7867802742
 O       -16.1646115442        7.7402528980      -18.2917527266
 C       -15.2559759822        5.5032653799      -18.2501587147
 C       -16.3363205543        5.2117883143      -19.2448960577
 C       -16.0245757744        4.0529489639      -20.1434200234
 O       -15.8044337617        2.9684886931      -19.6096969920
 C       -15.9087870676        4.3398530467      -21.6665545063
 C       -17.4415123786        4.6634164160      -22.1293686744
 O       -17.5554298225        5.3913265342      -23.0588233896
 C       -18.5722013073        3.9743895336      -21.4235333523
 C       -15.1059068583        5.6817235273      -21.9771242342
 C       -15.1441546729        3.1949538746      -22.3643102743
 C       -14.9742978677        8.9978382955      -16.1041713146
 C       -13.1032048801        7.7032702718      -17.2739035606
 C       -16.2782361423        7.1561006701      -10.8756839598
 C       -14.4415376486        6.3103578367       -9.3883437417
 C       -15.6035018236        1.6052785709      -15.3935044881
 C       -16.1021631955        0.1116528270      -13.3997648209
 C       -10.0986255758        3.8142696223      -16.2220924134
 C        -9.1273197302        1.5349999228      -16.3119280992
 C        -6.6820682308        3.1881464178       -9.3548725650
 C        -4.3357335664        2.3427487396      -10.1095138648
 C        -5.9928430125       -2.7853844592       -6.1381777899
 C        -4.8620685105       -0.5372801312       -5.2308454587
 C         2.8991771133       -2.8819123256       -5.8439439680
 C         0.9958830013       -3.5790140987       -7.4730879856
 C         5.4823019924       -7.3927003344       -2.7772055541
 C         6.7958746365       -5.8926575103       -4.3286208919
 C         9.8586253521      -12.5856341631       -4.2495829359
 C         9.9147495942      -11.9842438771       -1.8487257438
 C        14.8502016542       -6.5333839541       -2.6357099239
 C        13.8142574695       -5.0599353302       -4.2845211207
 C        11.1771632977       -9.3753146314       -8.6214088197
 C        12.4845227257       -7.6188817501      -10.0043658700
 H        10.5113636963       -5.2532774972       -9.5681750014
 H         9.0478087527       -5.9836405031       -9.5716343109
 H        10.2367941713       -6.7958241609      -10.5571175274
 H        14.4676201747       -6.7116133868       -8.4676529663
 H        14.8944463219       -8.4517283331       -8.1324985918
 H        15.0517155949       -5.8772499434       -6.5700098162
 H        16.0988857579       -7.4002866954       -6.5736979506
 H        12.9493630311       -8.1489933850       -1.8063528083
 H        12.9299591992       -8.9965738566       -3.3997154719
 H        10.1652143564       -8.5121727288       -2.2521000602
 H        11.1348587901       -9.7153077515       -1.4301450040
 H         7.0834107826      -11.8669955357       -4.6045098793
 H         8.2885107766      -10.8051683085       -5.4420113104
 H         5.8720445470       -9.9737908576       -3.7298904469
 H         5.8380056177       -9.8320517757       -5.5512889085
 H         4.0461852895       -5.7333781574       -4.1630638102
 H         3.0386517162       -7.0970923414       -4.2852711276
 H         2.3443918004       -6.7840923201       -6.6364774103
 H         3.4033548692       -5.2996397378       -6.7457753587
 H        -1.2900125921       -3.9706141472       -4.0900014759
 H        -1.4184181516       -4.2709439461       -5.7979463523
 H        -1.8308213657       -1.8235373901       -6.1400965989
 H        -1.8989591264       -1.6899065700       -4.3959724713
 H        -6.0729055460       -1.7255544174       -8.5515045869
 H        -4.7460574890       -2.5151465377       -9.2688446766
 H        -4.9798599247       -0.6264502311      -10.6061892430
 H        -4.0486871282        0.1604349750       -9.3259274007
 H        -8.2528971020        3.3328173503      -11.8552859696
 H        -8.6530782789        1.7460795661      -11.1602676133
 H        -8.5192008964        0.7237728834      -13.4038432029
 H        -7.3943790189        1.8898772156      -13.9192595858
 H       -10.9115400212        0.1503887568      -14.0253290732
 H       -10.8090319856       -0.4108861301      -15.5942429936
 H       -13.0398560221       -1.2439284438      -14.8044376580
 H       -13.3573907498        0.1790380800      -15.9478542410
 H       -15.0630525825        1.3226821976      -11.3247203785
 H       -16.3695253985        2.2271688452      -11.6509294829
 H       -13.7632501557        3.5000693144      -10.8873921133
 H       -15.1171932670        3.0496082691       -9.7200260823
 H       -13.3531912618        7.7762757878      -13.3454772224
 H       -14.9412500129        8.3174981913      -12.6783970983
 H       -16.0672473470        7.1942708306      -14.3206254888
 H       -15.4127650808        5.6119972476      -13.7714491490
 H       -15.2629166830        4.8352454002      -17.3476298509
 H       -14.2971623100        5.4616630452      -18.7037990947
 H       -16.6438454249        6.1784891079      -19.7013192015
 H       -17.1923291929        4.9769661822      -18.6196033303
 H       -19.4318446622        4.5816710482      -21.6759367661
 H       -18.5426798267        3.7771732479      -20.3476884325
 H       -18.7327947050        3.0483007535      -22.0424418004
 H       -15.4828820696        5.9821520260      -22.8955466211
 H       -14.0670340433        5.3708001643      -22.0711362840
 H       -15.3530518686        6.3038907809      -21.1533216015
 H       -15.0687914398        3.2719836304      -23.3804316400
 H       -15.7028093554        2.3362492099      -22.1364758876
 H       -14.1248794262        3.0977489883      -21.9232448295
 H       -15.6969599002        9.1079022117      -15.2071456674
 H       -15.3269434328        9.4764837553      -17.0268381564
 H       -14.1052750159        9.5574654765      -15.7491583374
 H       -12.7674148173        6.6745799673      -17.5009763070
 H       -12.4126519636        8.2204579249      -16.6863029814
 H       -13.1927647483        8.2399541732      -18.1854570506
 H       -17.0811731651        6.9966142391      -10.2005736781
 H       -16.7828187416        7.0842146987      -11.8330348586
 H       -16.0112443961        8.2136409491      -10.7652771463
 H       -13.7775376328        5.5416168008       -8.9855659817
 H       -15.2652905072        6.6227603095       -8.6870814665
 H       -13.8403152753        7.1738069835       -9.5537851144
 H       -16.5044370573        2.0569060732      -15.3044203278
 H       -15.7225249436        0.8058594258      -16.2136132419
 H       -14.8592780511        2.2508561970      -15.8520972666
 H       -16.3566907568       -0.6798060018      -14.1101907835
 H       -17.1439052122        0.4841130539      -13.2180142691
 H       -15.8771229522       -0.3145305153      -12.4724391080
 H       -10.3394717279        4.7333323597      -15.7012540280
 H       -10.9949801572        3.6642327731      -16.7850762010
 H        -9.2677298090        3.9332132303      -16.8558649926
 H        -8.2106879525        2.0110438533      -16.5674738281
 H        -9.7409594194        1.3947499869      -17.2156110224
 H        -8.9254151981        0.5416195486      -15.7688410468
 H        -6.8181647782        4.2215143091       -9.9088908857
 H        -6.2828886265        3.4103025142       -8.3728460863
 H        -7.7457619651        2.8832313175       -9.2368377163
 H        -4.1988125029        3.4011214170      -10.4375233579
 H        -3.9411291486        1.6473125358      -10.8845841296
 H        -3.7856192235        2.3130104968       -9.1642504202
 H        -5.9032994720       -3.5937307247       -6.9002506145
 H        -6.9325941990       -2.1435536077       -6.3123964227
 H        -6.1390918539       -3.3652509236       -5.2233247378
 H        -5.8818576339       -0.1020516230       -5.4252622194
 H        -4.1138502896        0.1141453997       -5.5926534794
 H        -4.7322500376       -0.6126234932       -4.2292907598
 H         2.7935762021       -1.8582139268       -6.1339281953
 H         3.6860924612       -3.3531546853       -6.4497759685
 H         3.1349050101       -3.0059188944       -4.8279808627
 H         1.7963825840       -4.0129015905       -8.0643859852
 H         0.8669454324       -2.6128286072       -7.7794638680
 H         0.1379616307       -4.2081076657       -7.7136597503
 H         6.3697046888       -7.4975841434       -2.0702594125
 H         4.6947098589       -8.1862415899       -2.6713934824
 H         5.0781234261       -6.5005355483       -2.4212202515
 H         7.3066025052       -6.0127734969       -5.2377584937
 H         7.3445807120       -5.6212878801       -3.4554287657
 H         5.9956561463       -5.1567892166       -4.5232933390
 H        10.7728782113      -13.1786665441       -3.9069717106
 H        10.1475371589      -12.1798543198       -5.2442747680
 H         9.0344044147      -13.2345203627       -4.2798914851
 H        10.9243368185      -12.3068361852       -1.5144933012
 H         9.1813077537      -12.7756957773       -1.6413856498
 H         9.7482815593      -11.1572538159       -1.1288633716
 H        15.8453553691       -6.3826851780       -2.9384882262
 H        14.7648875384       -7.4918717924       -2.1938992053
 H        14.7053604541       -5.7659084975       -1.8595758736
 H        13.7455682972       -4.4428035647       -3.3978157410
 H        13.0276778114       -4.8251131368       -4.9738755960
 H        14.7126982333       -4.8431404393       -4.8539009084
 H        10.9140275561       -9.5338743202       -7.5569048761
 H        11.8264612304      -10.2546323965       -8.9273964672
 H        10.1796931777       -9.3910395615       -9.0815842868
 H        12.9524201537       -8.6631725294      -10.2084677400
 H        13.1339968312       -6.7282084438       -9.9291777697
 H        11.8710795639       -7.5896192461      -10.9218926545
 Na       10.3741364124       -8.0841720287       -5.3681331477
 Na      -12.4348780377        4.2541900491      -13.7950638037
