232

 C       -19.2943213644       -7.9324950923       -1.9197214620
 C       -18.5754221595       -9.2377427390       -1.6824790077
 O       -17.6269430919       -9.4811922391       -2.3937617241
 C       -19.1151287031      -10.2270889108       -0.6159138569
 C       -17.8522734666      -10.7003246451        0.2672957393
 O       -17.2918350184      -11.7653252228       -0.0090322819
 C       -17.2866659390       -9.7798457937        1.4202121321
 C       -15.7573252185       -9.8130153567        1.3664948336
 C       -15.1853620861       -8.7851038131        0.4171877370
 O       -15.8900283907       -7.8112184311        0.1146393800
 C       -13.6870793070       -8.8414740654       -0.0566176510
 C       -13.7736625122       -9.9480517940       -1.1679459997
 O       -14.3125125049      -11.0548671494       -0.9666754903
 C       -13.5011101857       -9.4558747897       -2.6603200679
 C       -13.0718288276      -10.5559204278       -3.7421543216
 C       -14.1289758343      -10.7019592890       -4.8522693762
 O       -15.3382593833      -10.8788451624       -4.5468615970
 C       -13.8463615680      -10.6640345041       -6.3561388837
 C       -13.3694685878       -9.1789495332       -6.7780415384
 O       -12.5131083021       -8.6988871010       -6.0837117971
 C       -13.9583569537       -8.4251760912       -7.9796924151
 C       -13.0724195584       -7.1604738890       -8.2424595982
 C       -13.9265593810       -6.0312631414       -8.8451548289
 O       -14.8312282496       -5.5371874759       -8.1949003647
 C       -13.4992008805       -5.5790341982      -10.2310618051
 C       -12.0187768226       -4.7541852507      -10.0639589940
 O       -11.1338989756       -5.3491393177       -9.5755318817
 C       -11.9256173835       -3.2258968706      -10.2647659132
 C       -10.6123828739       -2.6123038678       -9.8748772547
 C       -10.4037618201       -1.1810387682      -10.3656324276
 O       -11.3396888391       -0.5415542295      -10.8959867642
 C        -9.0196372202       -0.4633512577      -10.1193642994
 C        -7.8168671061       -1.1181045251      -11.0174180014
 O        -7.9478457034       -1.8936506530      -11.9409578331
 C        -6.4591749800       -0.8795526252      -10.5282598695
 C        -5.4586086921       -0.6846377084      -11.6799004809
 C        -4.4764714038        0.4838621790      -11.6728038416
 O        -4.6524422311        1.4521592335      -10.9887044279
 C        -3.1151228813        0.2347084875      -12.4611833410
 C        -2.1671875661       -0.8302715338      -11.5109204038
 O        -1.4789945594       -1.6527302481      -12.1152804988
 C        -2.0797742561       -0.6301873201       -9.9751548758
 C        -0.7356548674       -0.7844671031       -9.3972759867
 C        -0.4922358328        0.0560339183       -8.1846128711
 O        -1.0939789140        1.0604265581       -7.9040515142
 C         0.9433865844       -0.2740106203       -7.4015344369
 C         1.9558718104        0.4175543780       -8.3114934872
 O         2.7232794478       -0.2108149814       -9.0541390132
 C         1.9984202601        1.9827127772       -8.3008247706
 C         3.4053587218        2.4793863765       -8.7339820580
 C         3.4858013198        3.8136867590       -9.3511263811
 O         2.5560378428        4.6149241555       -9.3783310376
 C         4.9047642355        4.2845789692       -9.8339599760
 C         4.8011854059        4.3589145536      -11.3489582317
 O         5.3563963477        3.5287688552      -12.0468425052
 C         3.7431347570        5.2746508655      -12.0433289057
 C         4.3223117475        6.6367964636      -12.3573106433
 C         4.8014968431        6.8641073708      -13.8086365747
 O         5.0973416975        5.8490768289      -14.4324211112
 C         5.1309414893        8.2637956338      -14.3296413580
 C         5.9090963517        8.2310703375      -15.6966434756
 O         5.6559954120        8.9052918985      -16.6590082878
 C         7.2805086217        7.4329915145      -15.7709122192
 C         7.5381843259        6.7882358471      -17.1333995631
 C         7.2675825722        5.2658253138      -17.3207822258
 O         6.6164197455        4.6147762348      -16.5365822685
 C         7.7836221680        4.4823300094      -18.6670748623
 C         9.2900933451        4.3543700015      -18.2748441485
 O         9.7234512464        4.8982652594      -17.2568668964
 C        10.1769339473        3.6170679979      -19.2423822950
 C        11.1271164934        2.5462346946      -18.6226953807
 C        10.4088802300        1.1721301910      -18.2751109840
 O         9.2396082153        1.0009060688      -18.4526479955
 C        11.1707838773        0.1030157809      -17.3546548602
 C        10.4668068186        0.0670743154      -15.9151866187
 O        10.9853282887        0.5180459001      -14.9337115550
 C         9.0841649486       -0.6267367309      -15.8552456302
 C         8.3762127199       -0.4293923841      -14.3990002654
 C         7.1188340665        0.5421745394      -14.3483429438
 O         7.1656178580        1.6648319132      -13.9150341357
 C         5.5165990972        0.0310383766      -14.6837029852
 C         4.9575390151        0.8449710292      -15.8627101872
 O         5.1489971219        2.0527717797      -15.9015916822
 C         4.4505354789        0.2461736784      -17.2187856836
 C         5.3210038381       -1.4360898321      -14.9764287915
 C         4.5898499346        0.4298872885      -13.3984307910
 C        11.0283293080       -1.2999662514      -18.1010089217
 C        12.6292781048        0.5666465858      -17.1479765308
 C         6.9753478417        3.2049487741      -18.9069098568
 C         7.7082054171        5.4276306723      -19.9178970983
 C         3.7707904829        8.9125953179      -14.6351237184
 C         5.8450122762        9.1390874655      -13.4029549678
 C         5.2359802357        5.6838984601       -9.2676768387
 C         6.0611163256        3.4181206714       -9.5158194510
 C         0.7817384144        0.1792563159       -5.8877851129
 C         1.3168165433       -1.7909895338       -7.3461977378
 C        -3.1931203938       -0.3716146901      -13.8485374199
 C        -2.3353009030        1.5206205793      -12.4934625132
 C        -9.0932122363        1.0048826266      -10.5756463102
 C        -8.5787812482       -0.6713277175       -8.6172460132
 C       -13.1291890880       -6.8541749208      -11.0883799848
 C       -14.7100602246       -4.7299348634      -10.8443621731
 C       -12.6280025828      -11.5636766624       -6.6680724544
 C       -15.0721739296      -11.1725071108       -7.1899172646
 C       -13.3204663180       -7.3645810156       -0.5664560877
 C       -12.7974584821       -9.2661829694        1.1147020027
 C       -20.2076473602       -9.6038382782        0.1892944941
 C       -19.5657484777      -11.4271362320       -1.4763990914
 H       -19.1499641615       -7.3468064139       -0.9684469736
 H       -20.3212270541       -8.0981895970       -2.1024231732
 H       -18.7145963835       -7.4679888289       -2.7162944858
 H       -17.6502265398      -10.2803582868        2.3123077329
 H       -17.7821517965       -8.8085547995        1.4810131013
 H       -15.4513827786      -10.7904349629        1.1283189043
 H       -15.3113979787       -9.6430813568        2.3455125821
 H       -12.8698358230       -8.5490354851       -2.7420481722
 H       -14.4430599528       -9.0844994017       -3.0442445513
 H       -13.0534364972      -11.5654665564       -3.1704978063
 H       -12.0967338488      -10.3589623995       -4.1720729281
 H       -14.9972804451       -8.2326591831       -7.6481803884
 H       -13.9217004568       -9.1735852789       -8.8046848107
 H       -12.2506120423       -7.3624933149       -8.8442054194
 H       -12.7301113177       -6.7012255863       -7.2496927783
 H       -12.7492223082       -2.8131408634       -9.7394662011
 H       -12.1341355238       -3.0332529397      -11.3309810805
 H        -9.7410319218       -3.2910823551      -10.1377070764
 H       -10.6236650449       -2.6588715662       -8.7536008002
 H        -6.0081751322       -1.7416516736       -9.9307727246
 H        -6.4049134335        0.0712734005       -9.9221831964
 H        -5.8979036796       -0.5092436187      -12.6194920702
 H        -4.8081526176       -1.5802613465      -11.9636503971
 H        -2.8813822148       -1.1749731015       -9.5120359069
 H        -2.3478960722        0.4202194025       -9.8163182376
 H        -0.0403462234       -0.5559213683      -10.1979248700
 H        -0.5220946376       -1.9013384778       -9.2436373138
 H         1.9215089053        2.3513751239       -7.2319951141
 H         1.3175245077        2.5004008731       -9.0405548607
 H         3.7635916409        1.7480534352       -9.4858038433
 H         4.1359404302        2.3079878440       -7.9213784138
 H         2.7336735279        5.2579189938      -11.4651034857
 H         3.3496551225        4.7894509906      -13.0245583550
 H         5.2280432152        6.8301995542      -11.7587375820
 H         3.6407941976        7.4538370994      -12.1710256409
 H         7.2414124574        6.5584008443      -15.0744808447
 H         8.0572128276        8.0814563206      -15.4414002267
 H         8.7222964447        6.9053478606      -17.4009996778
 H         7.0242861118        7.2752623161      -17.9157640843
 H        10.6492752875        4.2836432130      -19.9606468153
 H         9.5719886098        3.0322023609      -19.8969131137
 H        11.6189695569        2.9063362545      -17.7568167338
 H        11.8497282097        2.2545799177      -19.4227339834
 H         9.1245109218       -1.6979411125      -16.0335573706
 H         8.4117593381       -0.1878698081      -16.6267994008
 H         9.0337250712        0.1128020157      -13.6978984422
 H         8.0457054429       -1.3615859012      -13.9518155000
 H         4.8868588785       -0.7702078050      -17.4209387672
 H         4.4908884547        0.8330742714      -18.2354892644
 H         3.4518806049       -0.0061846406      -17.0047486530
 H         4.2370183191       -1.7002087677      -14.9483039197
 H         5.7661876029       -2.1573202152      -14.2338057505
 H         5.6531941740       -1.8541851110      -15.9825720814
 H         3.5001881157        0.4116906171      -13.7957710885
 H         4.9420638111        1.4522476757      -13.2575690248
 H         4.7183886995       -0.2844035148      -12.5361111711
 H        11.6016024917       -1.4541681889      -19.0296871851
 H         9.9547059959       -1.3881537632      -18.3580422305
 H        11.2617285625       -2.1629383724      -17.3918625323
 H        13.0182153247        1.0517186002      -18.0205255485
 H        13.2754757924       -0.1942610062      -16.7046887915
 H        12.6330251588        1.4216371616      -16.4850140156
 H         5.9733226948        3.4097023152      -19.1310630241
 H         6.8965533910        2.6891389643      -17.9493731009
 H         7.4400081819        2.5078286440      -19.6075607160
 H         8.3310244537        6.3585346691      -19.7306382634
 H         6.7968447228        5.6513193053      -20.2738649969
 H         8.2255747121        4.8226809512      -20.7038083389
 H         3.1929094781        8.7216590858      -13.7107460875
 H         3.3247507365        8.7152426565      -15.5534619014
 H         3.8991613399       10.0251500554      -14.5367622903
 H         6.2747558025       10.0349582887      -13.8697469535
 H         6.7074485349        8.6380145096      -12.9992973166
 H         5.2268469554        9.3584201057      -12.5876846767
 H         5.1971090400        5.4742917158       -8.1788310631
 H         4.4522451228        6.3975129611       -9.6024503715
 H         6.2587631433        6.0570774598       -9.4743602019
 H         6.9778529458        3.8255072080       -9.8572519906
 H         6.1392031955        2.4621859278      -10.0303791751
 H         6.1320455660        3.4012405294       -8.4275048181
 H         0.6453480098        1.2277160416       -5.7687975227
 H         1.6620433750       -0.1174029195       -5.4845648158
 H         0.0926729611       -0.3725031762       -5.3770057900
 H         0.6457093800       -2.4277531824       -6.8315403869
 H         2.2306375595       -1.8020423984       -6.8656092501
 H         1.6828756355       -2.1564977218       -8.2901080884
 H        -3.7315108918       -1.3581247268      -13.8719704812
 H        -2.2352524892       -0.5864884617      -14.2897955695
 H        -3.7148926753        0.3352758662      -14.5652487334
 H        -1.4647115576        1.2907145359      -13.1761465229
 H        -1.9083326039        1.9132360251      -11.5670596311
 H        -3.0311320503        2.2970964052      -12.8581163062
 H        -9.5776368011        1.7050021333       -9.8374811068
 H        -9.7733923460        0.8588883738      -11.4220660872
 H        -8.1563318239        1.4075356183      -10.9962314255
 H        -9.2862855160       -0.0516574021       -8.0602684511
 H        -7.6404573827       -0.2217534158       -8.4728992810
 H        -8.6890020893       -1.6820994518       -8.4591837248
 H       -13.3568753015       -6.6229085027      -12.1262230072
 H       -13.8355232342       -7.7079594235      -10.9388816732
 H       -12.1715378532       -7.3586570857      -10.9867521680
 H       -15.6070699142       -5.2830404495      -10.5204130289
 H       -14.7149458602       -4.7191170506      -11.9288299516
 H       -14.6701160958       -3.7638720914      -10.2331354293
 H       -11.7198506548      -11.0237103462       -6.5827648051
 H       -12.8368515579      -11.8693706821       -7.7044342257
 H       -12.5459344746      -12.4340902918       -5.9347542762
 H       -15.7983938535      -10.4416576295       -7.4626950459
 H       -15.6097027782      -11.9987151365       -6.7426106009
 H       -14.7690123108      -11.6177236674       -8.1541420017
 H       -14.1217662065       -6.9779402551       -1.2068593324
 H       -12.3740053824       -7.2879780945       -1.0563361206
 H       -13.2741306486       -6.7655363100        0.3110558149
 H       -12.9737633373      -10.2799797100        1.1383670637
 H       -13.0708222368       -8.7291241338        1.9623750957
 H       -11.7691140087       -8.9158223461        0.8313959635
 H       -19.8381742933       -8.5544848993        0.3971403845
 H       -20.4073887591      -10.1190107780        1.1196923579
 H       -21.1078788326       -9.5105863434       -0.3596447539
 H       -20.0341290783      -12.1034325018       -0.7672922520
 H       -18.7566426244      -11.9768016035       -1.9019857884
 H       -20.3202231198      -11.1095438432       -2.1735088689
 Na      -16.1518027447      -11.1939565247       -2.4257035422
 Na        5.7695908890        3.7118308614      -14.5809067052
