232

 C        10.0679088254       -6.0768650123       -9.5867955958
 C        10.5742711878       -7.0131107239       -8.4138504009
 O         9.8492169133       -6.9995601395       -7.4274077344
 C        11.8145577718       -8.0130224440       -8.5940226241
 C        12.8507453306       -7.8746291529       -7.4403238328
 O        12.4822200714       -8.2103031159       -6.2999976120
 C        14.2920435182       -7.5191250522       -7.6911870549
 C        14.9613502402       -6.9297340848       -6.4450882948
 C        14.5313645186       -7.5658067703       -5.0555425259
 O        14.9065172370       -8.6296348800       -4.6965827937
 C        13.8993708573       -6.5928308820       -3.9273168515
 C        12.3997061514       -7.2091517853       -3.5762029577
 O        11.4288970619       -6.5976250868       -3.9402326346
 C        12.3835651082       -8.3876776761       -2.5466095619
 C        11.1084574060       -9.1948071522       -2.4327025010
 C        10.6755105643      -10.2042742924       -3.4944786440
 O        11.1931834942      -10.0306678580       -4.6269047956
 C         9.7868063725      -11.3758429788       -3.1939784608
 C         8.1987018066      -10.9327956146       -3.3354499715
 O         7.5987662902      -10.5406878242       -2.3129420968
 C         7.4877922492      -10.8087710910       -4.7577160464
 C         6.4866252608       -9.6620746266       -4.6847852565
 C         7.1620956439       -8.2968629746       -4.4789558116
 O         8.3508553134       -8.0968621600       -4.4678153645
 C         6.1380606532       -7.0711127311       -4.2577116878
 C         4.9689038536       -7.1914565787       -5.2864520359
 O         5.1190604937       -7.8327595866       -6.3810718469
 C         3.6384160926       -6.4769278480       -4.9533491553
 C         2.7535387624       -6.0617629937       -6.1266266819
 C         1.6238631347       -5.1489372432       -5.6134700658
 O         0.8336598876       -5.6284675494       -4.8558702085
 C         1.4213041185       -3.6071255976       -6.0266589855
 C         0.3265278428       -2.9905952446       -5.0576276597
 O         0.7627796635       -2.2672123885       -4.1301082729
 C        -1.0712807558       -3.5992123158       -5.0382101320
 C        -2.1023700698       -2.4007637451       -5.1292742431
 C        -3.5325716367       -2.8323791710       -5.3080790996
 O        -3.8253205098       -3.9110781632       -4.8492298496
 C        -4.5898419651       -1.9237314004       -6.0086535246
 C        -4.1503488782       -1.5578428895       -7.4756351508
 O        -3.0730674401       -0.9997015525       -7.6954103090
 C        -5.0816722889       -1.7159606733       -8.6760387466
 C        -4.9727865948       -0.3692157896       -9.4791067878
 C        -5.8051431691        0.8540518096       -9.0253468428
 O        -6.5955796925        0.7914033877       -8.0900561254
 C        -5.8863249032        2.0752682151      -10.0997698310
 C        -6.5301209502        1.7030276981      -11.5261830701
 O        -5.9407098663        1.0742211022      -12.3923476178
 C        -7.9694960591        2.1953636121      -11.7451741832
 C        -8.4150490312        1.8593346427      -13.2344620913
 C        -9.4549655429        2.6503196278      -13.9773508727
 O       -10.0215931072        3.5458775814      -13.3530965688
 C        -9.9529345224        2.3542018699      -15.5914594656
 C       -11.3729491331        1.7688293054      -15.2512404038
 O       -12.4253219435        2.4046134270      -15.2864707443
 C       -11.4891278386        0.3390733283      -14.8512717086
 C       -12.9087601207       -0.1771621267      -14.9122223933
 C       -13.6758792665        0.5339318541      -13.7758287043
 O       -13.2347757344        0.5305114983      -12.6658443606
 C       -15.1956936071        1.1844999961      -13.9551840437
 C       -15.1008376854        2.4425972698      -13.0175895969
 O       -14.6668395044        3.5205571172      -13.4118452746
 C       -15.2211501347        2.1694317822      -11.4409364008
 C       -14.7985881277        3.4628685246      -10.6799456904
 C       -15.7650552871        4.6662281475      -11.0276914828
 O       -16.8444554623        4.5050719316      -11.5854247823
 C       -15.0706242924        6.1727054958      -10.8419354220
 C       -14.0681557067        6.3338745498      -11.9454389395
 O       -13.0128582700        5.6356291356      -11.9356216863
 C       -14.3738194954        7.3469059142      -13.0439269615
 C       -15.1633178071        6.6286437930      -14.1433681896
 C       -14.2692735987        6.4071493752      -15.4377724833
 O       -13.6158723368        5.3910798389      -15.6062330639
 C       -14.3509655810        7.4871083898      -16.6489454559
 C       -15.4056418097        7.0115289852      -17.7683777710
 O       -16.1678563576        7.7793343768      -18.3498748736
 C       -15.2935953052        5.5818726663      -18.2627171891
 C       -16.4893983038        5.2721171984      -19.2121424618
 C       -15.9851041231        4.1453198460      -20.1173368714
 O       -15.8771788145        2.9859841050      -19.7187496070
 C       -15.8509822007        4.4015773022      -21.6116819796
 C       -17.4405357146        4.6390137009      -22.2049743825
 O       -17.6026488294        5.6394782861      -22.8821644551
 C       -18.5984460032        3.8912313639      -21.5559015411
 C       -14.9544263734        5.7282765549      -21.9507322754
 C       -15.3316773246        3.2243352743      -22.4271664685
 C       -14.8954468064        8.8181932442      -16.1813740730
 C       -12.9673859910        7.7163798644      -17.2365061652
 C       -16.2966651222        7.0927739539      -10.8335635541
 C       -14.2326972774        6.3331890572       -9.5072357599
 C       -15.6622952700        1.5145644200      -15.3323654941
 C       -16.0949128474        0.1407199419      -13.2673441035
 C       -10.0937455944        3.7827385338      -16.1577444370
 C        -9.1171749962        1.4381885651      -16.5067235344
 C        -6.7266894715        3.1928283181       -9.4142502853
 C        -4.4806614387        2.5350851386      -10.2644864282
 C        -5.9368080512       -2.7122263343       -5.9953623474
 C        -4.9655340302       -0.5962574978       -5.3065238352
 C         2.8358952516       -2.9094337217       -5.7985902022
 C         0.9977528562       -3.4409674126       -7.5059579319
 C         5.5294867034       -7.4635405569       -2.7466865663
 C         6.8341908951       -5.7119174597       -4.3678820782
 C        10.0386026595      -12.5046899202       -4.1303077849
 C         9.9438125018      -11.9872272084       -1.7621095213
 C        14.8709073528       -6.6292517095       -2.7527749983
 C        13.7338945878       -5.0523901888       -4.2260376944
 C        11.2544496246       -9.4037537207       -8.7855247247
 C        12.5373842031       -7.6339176951       -9.9504505774
 H        10.6701932664       -5.1904177963       -9.6551136580
 H         9.0457627811       -5.5967450624       -9.4167517652
 H        10.0143281222       -6.6368554883      -10.5375600117
 H        14.4295372875       -6.7716861129       -8.4589565168
 H        14.8345316320       -8.4699185915       -8.0127453925
 H        14.6739831058       -5.8643335086       -6.4873701651
 H        16.0711393133       -7.0011232476       -6.7142518468
 H        12.4014641810       -7.7867170120       -1.6566069770
 H        13.3105704854       -9.0433387827       -2.5483753683
 H        10.2989300178       -8.4358009954       -2.1706915583
 H        11.2214724621       -9.7971780779       -1.5035750398
 H         6.7847977649      -11.6862989949       -5.0329741509
 H         8.2677068219      -10.7016312936       -5.5425245795
 H         5.6219588779       -9.9177488648       -3.9970140990
 H         6.1670545960       -9.5441663486       -5.7050195212
 H         3.8272601014       -5.6845334674       -4.2030662401
 H         3.0896911473       -7.2481230871       -4.3428589447
 H         2.1548390569       -6.8546569785       -6.5562412666
 H         3.3616173717       -5.4229452060       -6.8322030851
 H        -1.3468281329       -4.2671970738       -4.1301969498
 H        -1.1694368919       -4.3098627744       -5.9135914122
 H        -1.8096784807       -1.8476452877       -5.9528233075
 H        -1.8795682955       -1.8119012512       -4.2425785781
 H        -6.1245688942       -1.8633643635       -8.5360771313
 H        -4.6956597312       -2.6347329279       -9.2402987592
 H        -5.2854632605       -0.5811012676      -10.5014841891
 H        -3.8695482634       -0.1279459799       -9.5678121817
 H        -8.1538869772        3.1929548421      -11.5837994781
 H        -8.5748080858        1.5942668267      -11.0194458915
 H        -8.8077696187        0.8014249764      -13.4194918106
 H        -7.4872939294        1.7821362751      -13.8669484169
 H       -11.0538304610        0.2410225677      -13.9082016426
 H       -10.8312399211       -0.2644382551      -15.4545097358
 H       -12.9084909473       -1.2887452641      -14.7482174190
 H       -13.3262505582        0.0701431031      -15.8532058715
 H       -14.5834608345        1.3204777191      -11.2754240850
 H       -16.2143597385        1.7590496375      -11.2184269290
 H       -13.7928964086        3.6353748633      -11.1327054781
 H       -14.8201708725        3.2864037916       -9.6153761433
 H       -13.4218485681        7.7048364735      -13.3270100305
 H       -14.9128769927        8.1219473681      -12.5540784247
 H       -16.1356423718        7.1620220221      -14.2916139698
 H       -15.3698220544        5.6214222177      -13.7918044084
 H       -15.1735590696        4.8556853249      -17.4611021530
 H       -14.3330656628        5.6355569812      -18.8379228821
 H       -16.8647848781        6.1776338570      -19.6841977337
 H       -17.2994154353        4.9582964501      -18.5292809536
 H       -19.4826861705        4.5374837493      -21.6566112224
 H       -18.4326382981        3.5820703434      -20.5356771975
 H       -18.7853940114        3.0713704692      -22.2509323903
 H       -15.3527739232        6.2199189497      -22.7922059253
 H       -14.0308322793        5.2588325457      -22.2019948027
 H       -14.8990640010        6.2113313757      -21.0021756436
 H       -15.3516058003        3.5786913579      -23.4892019612
 H       -16.0501151652        2.3306762739      -22.4375357954
 H       -14.3024380749        2.8923445478      -22.1511063653
 H       -15.5626163851        8.7413557977      -15.3294094908
 H       -15.3634883166        9.3504583207      -17.0204664607
 H       -14.0589363764        9.3711939995      -15.7445982842
 H       -12.5770410279        6.8222361442      -17.6534709441
 H       -12.2591836918        8.2222161429      -16.5953740906
 H       -13.1327234844        8.4460521683      -18.0203205963
 H       -17.2232883258        6.6504401602      -10.4781835271
 H       -16.6059030231        7.3687737566      -11.8797125113
 H       -16.1634175762        8.0351334113      -10.3599911978
 H       -13.9423225684        5.3007016536       -9.3256966409
 H       -14.6781394736        6.7901418849       -8.6418382936
 H       -13.3103594332        6.7837134493       -9.7490805160
 H       -16.6615342980        1.9511141079      -15.3393598712
 H       -15.7760019184        0.5876032416      -15.9632012399
 H       -14.9816385783        2.0758772730      -15.8911261611
 H       -16.1122965279       -0.8007388843      -13.7840562758
 H       -17.1497805116        0.3586422035      -13.2522520498
 H       -15.9482836323        0.0035336046      -12.1694741692
 H       -10.6028180585        4.5017409256      -15.4963360157
 H       -10.8896976425        3.7281499892      -16.9919868410
 H        -9.1668724531        4.1843135509      -16.4332813506
 H        -8.0628225281        1.7679488890      -16.6188264149
 H        -9.6596309521        1.3463660616      -17.5065776829
 H        -9.0985412972        0.5091838075      -15.9976319679
 H        -6.9502056284        4.0766678447       -9.9665329445
 H        -6.2661541781        3.5496425037       -8.4137527198
 H        -7.7316703469        2.8030173057       -9.2089196748
 H        -4.4209504888        3.6141763489      -10.7405651970
 H        -4.0364655119        1.7923644545      -10.9091698506
 H        -3.9200987607        2.7014598277       -9.3248495127
 H        -5.8972325381       -3.5956627507       -6.6738610908
 H        -6.8807418754       -2.1267589336       -6.2085667884
 H        -5.9902818699       -3.2172470850       -5.0328303594
 H        -5.8053280852       -0.1186621843       -5.6765875183
 H        -4.0530134915       -0.0078754850       -5.5149401895
 H        -5.0861166358       -0.6984939722       -4.2005838735
 H         2.6437584408       -1.8724656506       -6.0809095876
 H         3.5450855338       -3.3317634527       -6.5108719808
 H         3.2367615539       -3.0698618777       -4.7473358927
 H         1.7305396206       -3.8824238203       -8.2945143970
 H         0.8866629378       -2.3700939942       -7.6915431823
 H        -0.0050590636       -3.9102803277       -7.7406063759
 H         6.3592597343       -7.5235038538       -1.9827654082
 H         4.8731512253       -8.3170821708       -2.7201928096
 H         4.9779048786       -6.5689783199       -2.3500601711
 H         7.4109358399       -5.6974900793       -5.3249208375
 H         7.4455538723       -5.7550026266       -3.5303171654
 H         6.1098320472       -4.9022651216       -4.2933623947
 H        11.0989261162      -12.8534147086       -4.1075305112
 H         9.8492123488      -12.1539923725       -5.1441574863
 H         9.3883714090      -13.3545443230       -3.8479345849
 H        10.9698592198      -12.2078209372       -1.4782076295
 H         9.3420314703      -12.9451467048       -1.8177699115
 H         9.6590890123      -11.4125791802       -0.8388905445
 H        15.8201630217       -6.1561989034       -3.0771533174
 H        15.1144952597       -7.6458990460       -2.4279032472
 H        14.5639751939       -6.0384296318       -1.9689613619
 H        13.4534171970       -4.6336393440       -3.2958205131
 H        12.8909753344       -4.8713853335       -4.9473218183
 H        14.5780198038       -4.6187379212       -4.6768075968
 H        10.4712025070       -9.6515716518       -8.0553605997
 H        12.0054882166      -10.1979143948       -8.6768989365
 H        10.7403918582       -9.3850737818       -9.7113429068
 H        13.3230694160       -8.3426016665      -10.1530188730
 H        12.7324949390       -6.5469173262       -9.9686470510
 H        11.9030814092       -7.9537784193      -10.7802400250
 Na       10.2305579160       -7.9320794666       -5.4791562955
 Na      -12.4014665045        4.2613890665      -13.7420410581
