232

 C        10.1564981368       -5.9494424547       -9.5491817840
 C        10.6015259183       -7.0128166104       -8.5101026973
 O         9.9759706296       -6.9839034123       -7.4808159393
 C        11.7585936243       -7.9145392055       -8.7116927003
 C        12.6897437654       -7.8706045154       -7.3952478805
 O        12.3087505247       -8.1680270140       -6.2981511807
 C        14.2198746612       -7.5456943248       -7.5497496668
 C        14.8824944962       -6.7653272344       -6.3416829207
 C        14.5610755976       -7.4638612707       -5.0374327594
 O        14.8841272882       -8.6555332199       -4.8314408342
 C        13.8953917893       -6.7064916470       -3.9358044595
 C        12.5431004807       -7.3337340771       -3.4824332045
 O        11.5615061426       -6.8438259114       -3.9439573728
 C        12.4898880958       -8.4036646144       -2.4263680601
 C        11.0874426358       -9.0957132567       -2.3159001668
 C        10.7126087283      -10.1663628378       -3.4424016901
 O        10.9611362669       -9.9928429317       -4.6049698978
 C         9.7404872369      -11.4688059595       -3.1823721302
 C         8.2918200263      -10.9319013025       -3.3221516768
 O         7.6421013716      -10.6730639264       -2.3600854106
 C         7.6401665987      -10.7605905289       -4.7263623011
 C         6.6037997227       -9.5683084334       -4.9209349975
 C         7.2013752391       -8.2121875957       -4.5095217504
 O         8.4226979786       -8.1654543980       -4.2493693877
 C         6.2149010659       -7.0631498329       -4.2483497452
 C         4.9632036054       -7.1227894825       -5.2977235766
 O         5.1043909326       -7.6131185016       -6.4225772440
 C         3.5529369107       -6.4333721666       -4.9687001986
 C         2.7976278233       -6.1188839810       -6.2231426502
 C         1.5186141456       -5.2905859127       -5.7240809792
 O         0.7708742886       -5.7410292950       -4.9146590964
 C         1.4237597998       -3.7014759491       -6.0373533613
 C         0.3833646107       -3.1336558977       -4.9346170265
 O         0.7920019954       -2.3128111995       -4.1576868415
 C        -1.0168180907       -3.4862080822       -5.1133473126
 C        -2.0491412946       -2.2264492468       -5.1172382293
 C        -3.4801526810       -2.8759898051       -5.3500372112
 O        -3.9129800690       -3.8793544844       -4.8570619063
 C        -4.5364326287       -1.9483226809       -6.0316283112
 C        -4.1328195177       -1.5144174995       -7.5034327438
 O        -3.0352250315       -1.0851190321       -7.6134094040
 C        -5.1597176368       -1.5586699486       -8.6403291112
 C        -5.0552716382       -0.3771224476       -9.6109296324
 C        -5.9171055051        0.7973656391       -9.1794707302
 O        -6.6016300441        0.7789897579       -8.2002351123
 C        -5.8861435646        2.0518311187      -10.1380546985
 C        -6.6172839961        1.5578151557      -11.4973205575
 O        -5.9515278589        1.0155807388      -12.3654416714
 C        -8.0473741194        2.0922315324      -11.8944511690
 C        -8.3894620716        1.6922760007      -13.3976063132
 C        -9.5116157168        2.6500587074      -13.9571043886
 O       -10.1405337207        3.4682255669      -13.3454581659
 C        -9.9692597497        2.3882672545      -15.4233556911
 C       -11.4290328373        1.7287881301      -15.2149939474
 O       -12.3617648618        2.5196044318      -15.1456965588
 C       -11.5865238718        0.2122483824      -14.8257457601
 C       -13.0737665267       -0.1954811023      -14.8710001838
 C       -13.7612821246        0.5298208147      -13.6406892427
 O       -13.0819591737        0.5537730616      -12.6566934953
 C       -15.2064487236        1.1016924430      -13.7739394043
 C       -15.0919042785        2.3907414731      -12.8805200829
 O       -14.8559122541        3.4884365073      -13.3677627778
 C       -15.1399194271        2.3012641996      -11.3243579944
 C       -14.8445284906        3.5973506340      -10.6026012054
 C       -15.7544472131        4.7524226037      -11.0299264658
 O       -16.8462506131        4.6037969244      -11.5022127537
 C       -15.1185660491        6.0575772517      -10.8476261302
 C       -14.0554213725        6.3200899181      -11.9696450661
 O       -12.9636307259        5.7277781604      -11.8894798251
 C       -14.2704512703        7.1729619533      -13.2117889327
 C       -15.1174393850        6.5591636628      -14.3258023283
 C       -14.2834863254        6.2940091849      -15.5533119110
 O       -13.5720917961        5.2898664230      -15.5834665316
 C       -14.2808233872        7.4842663764      -16.5587656117
 C       -15.3224600787        7.0779332224      -17.7947379848
 O       -16.0682125962        7.9274476874      -18.1932895650
 C       -15.2701246273        5.5719813130      -18.3191521945
 C       -16.5458142430        5.1673459276      -19.2355784809
 C       -16.0921258867        4.0620641100      -20.1879435767
 O       -15.8916866594        2.9539864437      -19.7773161215
 C       -15.9469756393        4.4940474996      -21.6977835667
 C       -17.3540886488        4.9461182221      -22.0829313694
 O       -17.6634032263        5.8700041722      -22.7937581201
 C       -18.4670221143        3.7750378229      -21.7747493711
 C       -14.9411523620        5.6747390303      -21.8792842179
 C       -15.5822428219        3.2245366769      -22.5093240939
 C       -14.8411015427        8.8588405871      -16.1032774782
 C       -12.8788583589        7.5954780998      -17.2558951710
 C       -16.3101805332        7.0877167416      -10.7444402836
 C       -14.1858578429        6.2132444619       -9.5212663807
 C       -15.5939202558        1.4128853500      -15.2149472941
 C       -16.1659589892        0.0507361211      -13.2118458256
 C       -10.0920996635        3.7470685055      -16.1704527775
 C        -9.0993900697        1.4848325069      -16.3834163441
 C        -6.7288488768        3.1671911833       -9.3765667137
 C        -4.5226046204        2.7951123200      -10.5278016917
 C        -5.9578328736       -2.7420978661       -5.9162458600
 C        -4.8471127936       -0.6160157664       -5.3248486008
 C         2.7305330183       -2.9282585068       -5.7735142431
 C         1.0105635214       -3.3642209545       -7.4659291698
 C         5.6178960610       -7.3211650151       -2.8588151203
 C         6.8160222548       -5.6592903419       -4.2892052370
 C        10.2216734875      -12.5128643349       -4.2457969421
 C         9.9306117988      -11.8631787574       -1.6398818197
 C        14.8805898601       -6.8503598288       -2.7745964260
 C        13.5350696640       -5.1707509353       -4.3382120873
 C        11.2840904868       -9.4578842961       -8.8401946759
 C        12.6490543419       -7.5698780391      -10.0467965628
 H        11.0232510775       -5.2989819211       -9.8174974661
 H         9.3984011866       -5.1755343150       -9.2516635234
 H         9.7939232768       -6.4582411097      -10.4249833968
 H        14.4670275919       -6.9370159695       -8.4042882388
 H        14.7834914340       -8.4545040928       -7.6196617922
 H        14.5376733063       -5.7573384392       -6.3536356133
 H        15.8969598953       -6.7176924849       -6.6077284323
 H        12.7821882539       -7.9308101830       -1.4731407140
 H        13.1628153126       -9.1711483170       -2.6372675092
 H        10.2268147053       -8.3915790859       -2.2524718004
 H        11.1069817447       -9.6149888293       -1.3340705458
 H         7.0251315818      -11.6333105755       -4.9918273268
 H         8.4999813554      -10.7515240455       -5.4750050322
 H         5.8193061138       -9.7316035335       -4.1007914074
 H         6.1906131854       -9.6480775095       -5.8994789226
 H         3.6868710529       -5.5348486660       -4.3735553886
 H         3.0149102771       -7.1457699352       -4.3202098963
 H         2.2887995815       -6.9359994329       -6.7327207643
 H         3.4383127694       -5.4259483695       -6.8255132947
 H        -1.5353183273       -4.0943237411       -4.3174550051
 H        -1.0731383371       -4.1857292999       -5.9715896371
 H        -1.8254712959       -1.4909089685       -5.8763819990
 H        -1.8630958774       -1.8277266956       -4.1099602061
 H        -6.3137663684       -1.6822045041       -8.3554378228
 H        -4.8892384134       -2.5404873837       -9.1247843889
 H        -5.2674217806       -0.7042705857      -10.6660682978
 H        -4.0055546560       -0.1539884649       -9.6321546424
 H        -7.9503587783        3.1777620854      -11.9652325608
 H        -8.9031130952        1.8879743824      -11.2651257897
 H        -8.8743914027        0.7177034288      -13.5689208928
 H        -7.4804462655        1.5908941542      -13.9893681995
 H       -11.1847513844        0.1505749521      -13.8008464099
 H       -10.9055338123       -0.4552775276      -15.3728288131
 H       -13.1083422839       -1.2005887326      -14.5939996702
 H       -13.4845555428       -0.0451097415      -15.8326755962
 H       -14.4005706918        1.4150219432      -11.0056256575
 H       -16.1375038891        1.8212089375      -11.1007416967
 H       -13.7371967568        3.7127820738      -10.8547671219
 H       -15.1338761486        3.4417169169       -9.5963950473
 H       -13.2396254483        7.4363917423      -13.4676325272
 H       -14.7524502024        8.0422370819      -12.8013022268
 H       -15.9933472322        7.1923521256      -14.4325939600
 H       -15.3851390717        5.5390410286      -14.0045278266
 H       -15.2384035966        4.9934212793      -17.4206067040
 H       -14.2698484233        5.4004507223      -18.8378741265
 H       -16.8868964699        6.0299395566      -19.7814510801
 H       -17.3747737773        4.9388561401      -18.5427557940
 H       -19.4657815440        4.2255785730      -21.6639967454
 H       -18.2067541563        3.2760561120      -20.8333048850
 H       -18.5022165463        3.1458892543      -22.6412739891
 H       -15.3226065280        6.2735018016      -22.7395590161
 H       -14.0644225190        5.1519098390      -22.1772427549
 H       -14.8010977075        6.0749006259      -20.8978585599
 H       -15.4442112724        3.4527121491      -23.6718942102
 H       -16.3115314470        2.3429085434      -22.4528231624
 H       -14.6152295842        2.9471844229      -22.0530416946
 H       -15.7691908938        8.7696584830      -15.5951208276
 H       -15.0689747176        9.4922890986      -16.9731099885
 H       -14.1375411982        9.2752495006      -15.3995575133
 H       -12.5607923692        6.7110491701      -17.7543615197
 H       -12.1295924065        7.9680585003      -16.5054073933
 H       -12.9120078642        8.4782068417      -17.9167079331
 H       -17.3041913437        6.7788938801      -10.3120159754
 H       -16.6310220547        7.4415653609      -11.7218382776
 H       -15.9333440876        8.0146722422      -10.2914588498
 H       -13.9528931839        5.2000225895       -9.2663861903
 H       -14.5972367607        6.6863502489       -8.6881052963
 H       -13.2110031665        6.6451413723       -9.8019050996
 H       -16.7036065905        1.7803447314      -15.2713957916
 H       -15.6635512124        0.5429216643      -15.7203426798
 H       -14.9257420717        2.0202167451      -15.8381533161
 H       -16.0918749330       -0.8579787823      -13.8083711947
 H       -17.2050131545        0.3167272405      -13.2561427765
 H       -16.1451181969       -0.1469008291      -12.1109284845
 H       -10.8094385681        4.4548143873      -15.7319059599
 H       -10.4636934356        3.6720992575      -17.2041846445
 H        -9.0431633595        4.2485603128      -16.0127794664
 H        -8.0823802383        1.9586763159      -16.4600287984
 H        -9.6277186601        1.5113109793      -17.3275096911
 H        -8.9563029851        0.4882083102      -16.0525889025
 H        -6.8830093926        3.9385529480      -10.0437099317
 H        -6.2257073940        3.6171566089       -8.5361035713
 H        -7.7535476163        2.9356446268       -9.1226963515
 H        -4.6782811316        3.6661485021      -11.1010148993
 H        -3.8691065462        2.0692098051      -11.0375117470
 H        -4.0648132131        3.2343275466       -9.6163114898
 H        -5.8627140066       -3.7272155656       -6.3619267514
 H        -6.7834049516       -2.2914539492       -6.3936395703
 H        -6.1205626464       -3.0191018313       -4.8505204136
 H        -5.4356515572        0.0970232613       -5.8703834211
 H        -3.8512276098       -0.1673830000       -5.0851929528
 H        -5.4118135319       -0.8636144688       -4.3335140769
 H         2.3778317094       -1.8872795951       -5.9854496706
 H         3.4948004968       -3.2244190869       -6.5145135748
 H         3.1254130634       -3.1074732534       -4.7274617426
 H         1.6350209520       -3.7630742840       -8.3154622381
 H         0.8611727022       -2.1747026173       -7.6131558524
 H        -0.0525304293       -3.7545368347       -7.5928789771
 H         6.3324299094       -7.3327507952       -2.0864394212
 H         5.0415667514       -8.2466895565       -2.7872548694
 H         4.9545647743       -6.4179644587       -2.5820860984
 H         7.1924190366       -5.5244274061       -5.3203626731
 H         7.6729976353       -5.8154127333       -3.5724437249
 H         6.1131565192       -4.9259311838       -3.9300956236
 H        11.2568089433      -12.4690073084       -4.3254431713
 H         9.7907414324      -12.2603262219       -5.2188062339
 H         9.9657079933      -13.5773068650       -3.9307622400
 H        11.0098115208      -11.8231833166       -1.5309214172
 H         9.6054488242      -12.8914385534       -1.4559527971
 H         9.6368605149      -11.2823228629       -0.7812904483
 H        15.6576769334       -6.0780089860       -2.9116233683
 H        15.4048676770       -7.8160218399       -2.7559667535
 H        14.4258349663       -6.5780230148       -1.8155538540
 H        12.9104948375       -4.7677457792       -3.5407093292
 H        12.9195994209       -5.1246948024       -5.2372904417
 H        14.4470199312       -4.6168507557       -4.5636489227
 H        10.4244249267       -9.7804719322       -8.3011742827
 H        12.0664175464       -9.9312233780       -8.3689300149
 H        11.1256347100       -9.7617894208       -9.8631996466
 H        13.5625863443       -7.9907236763      -10.1179869126
 H        12.5678123385       -6.5237567656      -10.1896661783
 H        12.2488837121       -8.1058964927      -10.8767458706
 Na       10.2013607341       -7.8389002478       -5.5293424293
 Na      -12.4032470541        4.3164795632      -13.7511265908
