232

 C        10.4822558266       -5.7554708051       -9.7495657643
 C        10.7071221680       -6.8255566099       -8.6995853062
 O         9.9282095422       -6.9517389274       -7.7423324525
 C        11.8703062382       -7.7805586595       -8.8946907187
 C        12.8187254032       -7.7448682374       -7.6305106088
 O        12.2780339535       -7.9177904239       -6.5199973177
 C        14.3115460693       -7.5718357986       -7.6618589656
 C        14.7120703363       -6.7417573085       -6.4170723204
 C        14.5224761306       -7.5542533012       -5.0988246583
 O        14.7925215689       -8.6942830427       -5.0402399916
 C        13.9110750018       -6.8407945910       -3.8223642310
 C        12.6247269817       -7.6191344585       -3.4133979964
 O        11.5752150150       -7.1194817633       -3.8059886474
 C        12.5049469947       -8.8392541889       -2.4884668821
 C        11.0389776745       -9.1562259059       -2.2412135802
 C        10.5424103488       -9.9558056979       -3.3821142546
 O        10.7377668877       -9.7122770263       -4.5901024658
 C         9.8209726400      -11.4361011860       -3.0170851708
 C         8.3847510325      -10.9841881604       -3.3825820203
 O         7.5946891416      -10.7525128632       -2.4320688493
 C         8.0575739495      -10.5883301028       -4.8846310428
 C         6.8956532334       -9.5919229439       -4.9764384687
 C         7.1605505700       -8.1945420000       -4.4376109204
 O         8.2363484702       -7.9616887794       -3.9461305671
 C         6.1047949652       -7.0947911648       -4.2756713479
 C         5.0320224592       -6.9684671165       -5.4176770314
 O         5.3193461035       -7.2978415276       -6.5717150039
 C         3.7317600030       -6.2850898154       -4.9579853482
 C         2.8245152840       -5.9572457204       -6.2008478042
 C         1.5125294539       -5.2913806492       -5.7462644066
 O         0.5851498004       -5.9325031275       -5.2978098404
 C         1.4067604146       -3.7798897759       -5.9265565177
 C         0.3607613788       -3.1073117391       -4.9798192513
 O         0.6733011820       -2.3637612746       -4.0194937410
 C        -1.1150401740       -3.3768458340       -5.1397697650
 C        -2.0140499497       -2.2367056618       -5.0984821691
 C        -3.4667369340       -2.8496184309       -5.3147050027
 O        -3.8025943825       -3.9334724849       -4.8714880250
 C        -4.5800646534       -1.8729503264       -5.9683888239
 C        -4.2062756133       -1.4335897440       -7.4221684004
 O        -3.0340396258       -1.2122117188       -7.7736801976
 C        -5.2469858156       -1.4542664495       -8.6224550293
 C        -4.9948657088       -0.3669928294       -9.7293240547
 C        -5.8607279948        0.8868687433       -9.4523922139
 O        -6.6304150256        0.8314272776       -8.4874533427
 C        -6.0120957961        2.2146062732      -10.3101203054
 C        -6.7040819924        1.5144145666      -11.5728217149
 O        -6.1292022022        0.7627135585      -12.3321004415
 C        -8.0161297482        2.0711230301      -11.9824083980
 C        -8.4389584705        1.7454629976      -13.4006402499
 C        -9.5893881117        2.5675217391      -13.9054236218
 O       -10.2691683977        3.2800877739      -13.1300463114
 C       -10.0802265758        2.3368372283      -15.3719038815
 C       -11.5425522745        1.6804841891      -15.2347905269
 O       -12.4862208760        2.3436883855      -14.8866089761
 C       -11.6781467620        0.1896509656      -15.2165187154
 C       -13.0618205857       -0.2267192305      -14.7646747614
 C       -13.5826686863        0.4857746859      -13.5242958235
 O       -13.0140202773        0.5420097992      -12.4466823885
 C       -15.1954609666        0.9692327087      -13.5875848611
 C       -15.2167536299        2.2525389894      -12.7126350810
 O       -14.9596172636        3.2975003410      -13.2690280357
 C       -15.3186936816        2.1679293580      -11.1727760469
 C       -14.8507314758        3.5232249202      -10.5008178571
 C       -15.6520508843        4.8172739565      -10.8706335354
 O       -16.7663788075        4.6715383096      -11.3420832470
 C       -15.0282422607        6.2007013633      -10.6354527895
 C       -13.9954524269        6.2273165535      -11.8997232971
 O       -12.9551512445        5.6365022697      -11.9794835236
 C       -14.3694258794        7.1221977874      -13.1868628855
 C       -15.0852971928        6.2856901055      -14.3528840494
 C       -14.2210816637        6.2438236053      -15.6286949591
 O       -13.3304933402        5.3826974903      -15.6453424413
 C       -14.1751196719        7.4588500500      -16.6047024303
 C       -15.3017758347        7.1155909170      -17.7948113197
 O       -16.0896488397        7.9109199126      -18.2343768292
 C       -15.2402935132        5.6191766377      -18.3274595995
 C       -16.3864454560        5.2364287162      -19.1726385977
 C       -16.1368210670        4.1015433914      -20.2234332148
 O       -15.8857016048        2.9649798732      -19.8546065359
 C       -16.0671385631        4.4892494660      -21.8061057812
 C       -17.5332258321        4.9329803821      -22.1577994239
 O       -17.6803005896        6.1474889506      -22.3256704657
 C       -18.6912511609        4.0251085803      -22.3815726868
 C       -14.9421618510        5.6355010692      -21.9303203007
 C       -15.6826228587        3.2746361236      -22.6555005736
 C       -14.4084231127        8.8098952618      -15.9680565998
 C       -12.8032753271        7.3702869121      -17.2925876492
 C       -15.9712931500        7.4547476417      -10.8277767634
 C       -14.3310249139        6.3044099537       -9.3220343894
 C       -15.6138852291        1.4367351712      -14.9711605604
 C       -16.1663135021       -0.0115071337      -12.9579343895
 C       -10.1746386430        3.6253301335      -16.0866388617
 C        -9.0278300035        1.3044508757      -16.1069142724
 C        -6.9909439378        3.1986955079       -9.5717056692
 C        -4.6765513029        2.7133393460      -10.7570393921
 C        -5.8978171763       -2.6440951370       -6.0131080302
 C        -4.7004025410       -0.5312711458       -5.1557282698
 C         2.8472732862       -3.1547336551       -5.7237442344
 C         0.9513515972       -3.5597957168       -7.4684664134
 C         5.5380294303       -7.2105499516       -2.7445280160
 C         6.9442280710       -5.7003716997       -4.4186968952
 C        10.3383560020      -12.4787292146       -3.9799891581
 C        10.0586169949      -11.9383952475       -1.5729711349
 C        14.8841058804       -6.7450284785       -2.6110706018
 C        13.4788665248       -5.3477320194       -3.9651860146
 C        11.3400391644       -9.2932698672       -8.8889179172
 C        12.6142173752       -7.6279450756      -10.1905372899
 H        11.3391410615       -5.3363944510      -10.1973111964
 H         9.9534848861       -4.9178556422       -9.3404053025
 H         9.8222318811       -6.1918462832      -10.5134312971
 H        14.6566542909       -7.1156550136       -8.5931548289
 H        14.8597890006       -8.5396479483       -7.5736463320
 H        14.1648411802       -5.7998341947       -6.4724017353
 H        15.7566415742       -6.3130241247       -6.4595407863
 H        12.9896698497       -8.6674578639       -1.5421873369
 H        12.9615524379       -9.7730275129       -2.9628864865
 H        10.3958466477       -8.2971652034       -2.1645819684
 H        10.9384165033       -9.6294491361       -1.2991767461
 H         7.7694233898      -11.5389732462       -5.3834918746
 H         8.8818906852      -10.2856256582       -5.4539210620
 H         5.9495282608       -9.9507066457       -4.6654557851
 H         6.8557557050       -9.4492767078       -6.0927856935
 H         4.1283153576       -5.3705535736       -4.4618477879
 H         3.1989333083       -6.9544003807       -4.2536381684
 H         2.5180797625       -6.8849481189       -6.6673229761
 H         3.2634038734       -5.2937810210       -6.8865795815
 H        -1.4568519041       -4.0986012497       -4.4269766769
 H        -1.3726490682       -3.9473851994       -5.9913069638
 H        -1.5748798436       -1.5852601580       -5.8848167787
 H        -2.0789629585       -1.7303311097       -4.1052554165
 H        -6.1891850872       -1.3392724558       -8.3238720048
 H        -5.2214363919       -2.4508448756       -9.0450250519
 H        -5.1864484659       -0.7277448465      -10.7080409583
 H        -3.8888337360       -0.2157374432       -9.7191127861
 H        -7.8688809586        3.1674847787      -11.8818514786
 H        -8.9234734140        1.7809975537      -11.4055352546
 H        -8.7002928180        0.6791209231      -13.4674766870
 H        -7.5637360294        1.9395462696      -14.0339946765
 H       -10.8257534052       -0.1817620920      -14.5789463914
 H       -11.3967134690       -0.2250393918      -16.2188449512
 H       -13.0641685681       -1.3753255404      -14.6341515608
 H       -13.7827802101        0.0872212398      -15.5525755583
 H       -14.7843032870        1.3499147468      -10.9076058051
 H       -16.3358392952        1.9107498145      -10.8632849916
 H       -13.8471731727        3.5950434282      -10.7826100290
 H       -15.1153852032        3.3999629178       -9.4190248913
 H       -13.3823423910        7.5304458888      -13.4854619377
 H       -14.9815001007        7.9728631279      -12.7966003249
 H       -15.9678111370        6.8868542967      -14.6399005173
 H       -15.2899997807        5.2289027479      -14.1513585324
 H       -15.0316894988        4.8735396103      -17.5122912646
 H       -14.3584950966        5.5671104653      -18.9159245314
 H       -16.8446396091        6.1226276854      -19.6568153252
 H       -17.1446261763        4.8474989308      -18.4968681284
 H       -19.6801008833        4.5080900236      -22.2600643126
 H       -18.6486014157        3.2380532391      -21.6231579381
 H       -18.4807014928        3.7810352280      -23.4543044774
 H       -15.0736125637        5.9439676179      -22.9230028233
 H       -13.9779687542        5.1000947411      -21.7649350473
 H       -15.0984260503        6.3541440033      -21.1074162775
 H       -15.8039706516        3.4884648102      -23.6534098468
 H       -16.2863669094        2.4322090463      -22.4782975621
 H       -14.6898457254        2.9675170295      -22.4737781225
 H       -15.4549424050        9.1573130278      -16.1797251307
 H       -13.9344211824        9.5721371430      -16.5667008755
 H       -14.0765009482        8.8359826982      -14.9081921318
 H       -12.6764790484        6.3344166957      -17.7102877876
 H       -12.0746030021        7.5571150032      -16.5167855376
 H       -12.5766959469        8.1610033947      -18.0094811461
 H       -16.6091404201        7.5359286725       -9.9885428796
 H       -16.6988584589        7.2636815991      -11.6688655197
 H       -15.5262008681        8.4335552571      -10.9778625802
 H       -13.6742454635        5.4258895003       -9.1469129204
 H       -15.0754579231        6.3496913063       -8.4509335965
 H       -13.7982893853        7.2401882325       -9.3757528006
 H       -16.4938233294        2.0029186481      -15.0176030583
 H       -15.8656786336        0.5801277619      -15.7241547217
 H       -14.8465536013        2.0169953673      -15.4579898814
 H       -16.2838085633       -0.8927208928      -13.5885704250
 H       -17.1526354435        0.3782368205      -12.6554441928
 H       -15.8941168330       -0.3889127684      -11.9868487679
 H       -11.1177387712        4.1217198569      -15.8410513064
 H       -10.1274146341        3.5176617500      -17.1880374754
 H        -9.5034791383        4.2482573338      -15.6964534209
 H        -8.1094442110        1.8226544031      -16.0954630584
 H        -9.3262737684        1.0227085418      -17.1290010818
 H        -8.8247410556        0.3569848925      -15.5959563563
 H        -7.2060226131        4.1792610034      -10.0102395854
 H        -6.5371843846        3.4120996285       -8.5494039889
 H        -7.9388008043        2.7427952351       -9.3879615437
 H        -4.8609430977        3.5369669623      -11.5023182080
 H        -4.1369772368        1.9357733026      -11.1652474464
 H        -4.1657380010        3.1804800339       -9.9777318418
 H        -5.8922217220       -3.6149998014       -6.4706803322
 H        -6.5660409022       -2.0735545858       -6.6780264167
 H        -6.2158276856       -2.7372762382       -5.0209215884
 H        -5.1160556624        0.1986564440       -5.8478881101
 H        -3.6999427517       -0.1871103809       -4.8934517945
 H        -5.3877271927       -0.5517331843       -4.3527681331
 H         2.8178109747       -2.1054107832       -5.6953136616
 H         3.5155147624       -3.5054082392       -6.4783336412
 H         3.1661247616       -3.5508806022       -4.7908222301
 H         1.8514315349       -3.7833722807       -8.0330944034
 H         0.7731634716       -2.5880002743       -7.6709773279
 H         0.0540850717       -4.0295112324       -7.7900127434
 H         6.3813083864       -7.2130807433       -2.0050236878
 H         5.2752914311       -8.2507585107       -2.6491453022
 H         4.7732555999       -6.5705838096       -2.4108158101
 H         7.0453511629       -5.5036190850       -5.4944953915
 H         7.9143757290       -5.8279765775       -4.0249628692
 H         6.3211548596       -5.0014222841       -3.8299380197
 H        11.4558775711      -12.3639615203       -3.9228174293
 H         9.9593206246      -12.3503673019       -4.9686414699
 H        10.1703112569      -13.4604347008       -3.6622662711
 H        11.0933198864      -11.9310725321       -1.2851848432
 H         9.6231975859      -12.9099955656       -1.4479812750
 H         9.5811122847      -11.3586275087       -0.8090906959
 H        15.6607725786       -5.9692480042       -2.7816138081
 H        15.4669897704       -7.6680364941       -2.4221769526
 H        14.3041734508       -6.4394001631       -1.7473950911
 H        13.1439850068       -4.9700799438       -2.9953265650
 H        12.5870679595       -5.1296490118       -4.6125016672
 H        14.4008586249       -4.8666594442       -4.2957789831
 H        10.6596215617       -9.4139530176       -8.0159560319
 H        12.1214035927      -10.0491222895       -8.6136644133
 H        10.7395158789       -9.5690999931       -9.7460843253
 H        13.1194797506       -8.5997052016      -10.3793871142
 H        13.3434034494       -6.8402403336       -9.9456344542
 H        12.2082412924       -7.3872762294      -11.1672839298
 Na       10.0567893254       -7.8438278143       -5.4153940605
 Na      -12.5385109018        4.4526838836      -13.7579690438
