232

 C        10.9459380266       -5.3821106207       -9.9872200333
 C        10.8438135265       -6.4806392166       -8.8706236569
 O         9.9872109747       -6.5106956394       -8.0498265211
 C        11.9729338382       -7.7150515202       -8.9093431820
 C        12.8289935526       -7.4998710342       -7.5940236378
 O        12.3013172915       -7.4218187140       -6.5009765710
 C        14.3677794067       -7.2560056075       -7.7330273025
 C        14.8407812889       -6.6133716478       -6.3734845659
 C        14.3879036837       -7.4749197430       -5.2006668297
 O        14.3552803531       -8.7233467369       -5.3255343387
 C        14.0778421039       -6.8149998887       -3.6283780838
 C        12.7422431836       -7.4180680706       -3.3208286467
 O        11.6694845328       -6.9246174221       -3.5581720329
 C        12.8378608413       -8.7464602743       -2.4973048971
 C        11.5749437422       -9.6724926542       -2.2270098598
 C        10.6786526661      -10.2768652414       -3.4365233585
 O        10.7436470690       -9.8046168648       -4.5564540870
 C         9.6384691356      -11.4532747689       -3.0865403703
 C         8.0612774467      -10.9329472090       -3.4567050986
 O         7.1648567510      -10.9081711290       -2.7106809805
 C         7.8283567377      -10.3983178070       -4.8864016842
 C         6.6736336130       -9.3769209419       -4.8665288650
 C         7.2493331156       -8.0705225431       -4.4463416336
 O         8.4423946209       -7.8309422065       -4.5332945571
 C         6.2470225785       -6.9212960385       -4.0605907302
 C         5.1629921158       -6.8239388733       -5.2843736972
 O         5.4589667091       -7.2989823892       -6.3544758803
 C         3.7240273388       -6.2898100802       -5.0153509434
 C         2.9664551945       -6.0579213954       -6.3412265757
 C         1.5231418717       -5.4446816769       -5.9998749360
 O         0.5251224992       -6.1143085685       -5.8066133101
 C         1.4790008324       -3.8422854338       -6.0223613308
 C         0.3445104095       -3.3240492988       -5.0270150936
 O         0.6662737618       -2.6451617747       -4.1310979488
 C        -1.1216950423       -3.7603916556       -5.2736693088
 C        -2.0962620272       -2.5814406856       -5.2953637289
 C        -3.5181031798       -2.9084380864       -5.5462635358
 O        -4.0168500221       -3.9856394246       -5.2365424139
 C        -4.3980179972       -1.7602565674       -6.0642204387
 C        -4.1268034009       -1.3991213965       -7.5530962498
 O        -3.0358083204       -1.0665577498       -7.8667103258
 C        -5.2398252334       -1.4576140619       -8.5862674844
 C        -5.1135719479       -0.2733610781       -9.5648642749
 C        -6.0551165616        0.9555119276       -9.2689662771
 O        -6.8609813830        0.9362569175       -8.3973324326
 C        -5.9889629302        2.2053025466      -10.3712857760
 C        -6.9203091408        1.5814671131      -11.5170090797
 O        -6.5563319229        0.5933391219      -12.1425869735
 C        -8.1873858292        2.3025820681      -11.9151657549
 C        -8.6542141356        1.8134653829      -13.3156294075
 C        -9.8734777288        2.3904545622      -13.9615987325
 O       -10.5333464357        3.0889308274      -13.2532644825
 C       -10.4048341023        1.8679203352      -15.4074287695
 C       -11.9454555690        1.3096709490      -15.3127051808
 O       -12.8387872055        2.1078062850      -15.1986862559
 C       -12.1665042612       -0.2335539207      -15.3010992427
 C       -13.5421212657       -0.6498218416      -14.7454081681
 C       -13.7406575666        0.1222457756      -13.3978795255
 O       -12.7494141651        0.3044932038      -12.7496685430
 C       -15.1289649533        0.7876124876      -13.0241132839
 C       -14.9151538045        2.1483635100      -12.2196736344
 O       -14.5073824589        3.1877287627      -12.7642931347
 C       -15.5333070490        2.3383512588      -10.8631741082
 C       -15.0766988423        3.6571609067      -10.1978445909
 C       -15.8307012395        4.8221612577      -10.6445279967
 O       -16.9872793303        4.8560090218      -10.9669198526
 C       -14.9248766495        6.3149820185      -10.6503005954
 C       -14.0050614426        6.3103292151      -11.8160047065
 O       -13.2034753557        5.3692456048      -11.9324921765
 C       -14.2593008621        7.2092038275      -12.9676693456
 C       -14.6447070029        6.5597861925      -14.3007467960
 C       -13.6154224102        6.5712830220      -15.5170001235
 O       -12.7330056970        5.7289057691      -15.5080835125
 C       -13.7550788432        7.3879535099      -16.6707022637
 C       -15.0156025167        6.9143890272      -17.6120655405
 O       -16.0518785206        7.4623598657      -17.3756748023
 C       -14.9547018842        5.6442849126      -18.5573948491
 C       -16.1739151800        5.4962631844      -19.4532945317
 C       -16.1603409885        4.3171476980      -20.4185851140
 O       -16.0702132477        3.1773919988      -20.0155887509
 C       -16.3155825825        4.5985922597      -21.8877931998
 C       -17.6934112177        5.3473544270      -22.1914731551
 O       -18.2978486517        6.0047260189      -21.4071534916
 C       -18.5020025976        5.0407960223      -23.6427459730
 C       -15.1619682479        5.4923702589      -22.4027071545
 C       -16.1971606037        3.2975895011      -22.7614667931
 C       -13.9009057858        8.9212768318      -16.3564326908
 C       -12.5693784422        7.2666199886      -17.6574617777
 C       -15.8324701890        7.5760128442      -10.5912631455
 C       -14.0932708878        6.2157035640       -9.3437895859
 C       -15.9107989665        1.2211863671      -14.2907146550
 C       -15.9764950129       -0.2711411304      -12.2546360193
 C       -10.7805028631        3.0944118764      -16.2211621304
 C        -9.6210207847        0.9046064492      -16.2985544027
 C        -6.4005067183        3.5578981543       -9.6493118337
 C        -4.5754815589        2.5038518220      -11.0077778463
 C        -5.9116419849       -2.1820756773       -5.7919215461
 C        -4.2952919282       -0.5100521110       -5.1778830157
 C         2.8447268455       -3.2842087774       -5.5664223740
 C         1.1397417236       -3.2988640405       -7.4163066315
 C         5.6037573492       -7.3529397286       -2.7143321538
 C         7.1546051568       -5.5091711758       -4.1092277026
 C         9.7704418763      -12.6469781684       -4.0456589217
 C         9.7497907158      -11.8090774496       -1.5036330154
 C        15.2248181253       -7.0984990722       -2.6624573037
 C        13.8999648991       -5.3315719454       -3.8642915451
 C        11.3183275377       -9.1450192767       -8.6967553948
 C        12.8305938434       -7.7092623726      -10.1525527454
 H        11.8029317155       -4.7316790852       -9.8695059034
 H        10.0231066320       -4.8364478986      -10.0818620081
 H        11.1996701999       -5.8345259039      -10.8866188293
 H        14.6732444604       -6.6894208036       -8.5900890148
 H        14.9990826780       -8.1752126594       -7.8485858687
 H        14.4435620624       -5.5584634460       -6.2989802764
 H        15.9552341150       -6.4664345352       -6.4558011355
 H        13.3981000427       -8.5623247614       -1.5642670038
 H        13.5029094015       -9.3134267470       -3.2052831921
 H        11.0391038332       -9.2331538463       -1.4113759927
 H        11.9839326344      -10.5710781673       -1.8394625999
 H         7.4560189493      -11.2706636517       -5.3957735993
 H         8.7515194102      -10.2626257870       -5.3909828954
 H         5.7902848752       -9.7046964694       -4.2475036828
 H         6.2707697197       -9.2104644384       -5.8252459754
 H         3.7368734541       -5.3173531337       -4.5302546706
 H         3.4160870795       -7.1913229668       -4.4518874337
 H         2.8719645333       -6.9052882975       -6.9306879553
 H         3.6579991634       -5.5182567833       -6.9638802638
 H        -1.5588621686       -4.5025354561       -4.5922089220
 H        -1.1236317347       -4.2548908970       -6.2399250485
 H        -1.7511238106       -1.8279846581       -5.9922860662
 H        -1.9927561255       -2.1962248548       -4.2224269657
 H        -6.2942867278       -1.4474085940       -8.2539813048
 H        -5.1461766914       -2.3204050838       -9.0874067273
 H        -5.1942137131       -0.6482649611      -10.5694579383
 H        -4.0753856766        0.1015579995       -9.4427852539
 H        -7.9219810815        3.3348354716      -11.8723759934
 H        -9.0679048434        2.1921756797      -11.1975693901
 H        -8.8856526373        0.7551195886      -13.1205057586
 H        -7.7397274436        1.9470166846      -13.9028787693
 H       -11.2979464664       -0.5204405956      -14.7047997380
 H       -12.0579656306       -0.6347120848      -16.3590088701
 H       -13.5514112015       -1.7600903696      -14.4679429640
 H       -14.3539857111       -0.4748154611      -15.5354775562
 H       -15.2703569607        1.5532013576      -10.1870572543
 H       -16.5108460702        2.2806609519      -11.0261856098
 H       -13.9751022950        3.6954233524      -10.4781625873
 H       -15.2283617907        3.4907587746       -9.1566233654
 H       -13.2878280870        7.7940803765      -12.9532271328
 H       -14.9399512176        8.0287878440      -12.7505696684
 H       -15.6093965762        6.9867314147      -14.6113280734
 H       -14.6649508942        5.4731915486      -14.1616299677
 H       -14.7956620641        4.6902312955      -18.0942917255
 H       -14.0428022810        5.7233506034      -19.1828024880
 H       -16.3673442097        6.3767359496      -20.0520668455
 H       -17.0998412700        5.3528597394      -18.8535333364
 H       -19.2058956044        5.8858813888      -23.6640742199
 H       -18.9885000543        4.0425663556      -23.6592330145
 H       -17.6732236431        5.2233558516      -24.3253653655
 H       -15.3149433022        5.7231012970      -23.5022095766
 H       -14.3348719203        4.8526420638      -22.1457440507
 H       -15.2155536247        6.3842355238      -21.7752761654
 H       -16.0944220221        3.5027169329      -23.7967817867
 H       -16.9569454329        2.6338570986      -22.6822629522
 H       -15.3135178056        2.7775689763      -22.5395128795
 H       -14.4583487354        9.0867340618      -15.4710331711
 H       -14.4068181539        9.5385519801      -17.1771070387
 H       -12.8698880930        9.3621903405      -16.3687525924
 H       -12.2067261884        6.2782744430      -17.8080048882
 H       -11.6855312120        7.7391760831      -17.1283061449
 H       -12.7687218523        7.8088037570      -18.6154341169
 H       -16.4103353425        7.5130897417       -9.6299356493
 H       -16.5130320259        7.6152018177      -11.4212434190
 H       -15.3408163122        8.5516792148      -10.5583000716
 H       -13.4877232228        5.3086576946       -9.5448832861
 H       -14.6906516273        6.0405465253       -8.4575503517
 H       -13.4504853210        7.1267204189       -9.1162839062
 H       -16.7940211818        1.9145117015      -14.0385559145
 H       -16.3175433605        0.4221354363      -14.7940932379
 H       -15.4172648185        1.8586025633      -15.0255142888
 H       -16.2206675464       -1.1145349420      -12.8708547944
 H       -16.8919001568        0.1607162047      -11.9015813393
 H       -15.4617545015       -0.8461333486      -11.4034750655
 H       -10.9488470813        3.9334621861      -15.6221441798
 H       -11.4978539804        2.8778053754      -16.8928877088
 H        -9.9758133036        3.4014013300      -16.9374984655
 H        -8.6120677380        1.3096105157      -16.5508089599
 H       -10.0718228276        0.7060175217      -17.2610730443
 H        -9.4700042160       -0.0294709912      -15.8471868448
 H        -6.5326506764        4.3995037532      -10.3465103055
 H        -5.6087328032        3.8369454830       -8.9857706984
 H        -7.3181125045        3.5134802152       -8.9906071521
 H        -4.7403099737        3.2575985735      -11.6578563093
 H        -4.3947667303        1.6641656893      -11.6700299191
 H        -3.7210806400        2.5897178236      -10.3815134368
 H        -5.9959152801       -3.2444024357       -6.0025489531
 H        -6.6927097477       -1.6565253283       -6.2590829733
 H        -5.9671285903       -1.9933434667       -4.7272406289
 H        -4.9822619852        0.2719778024       -5.4794346110
 H        -3.3396583202       -0.0927886669       -5.0861994807
 H        -4.6034184672       -0.9277737833       -4.1973604286
 H         2.7558996197       -2.2127293613       -5.6222944644
 H         3.5942180190       -3.5908366345       -6.2356051128
 H         3.0288379310       -3.4713971715       -4.4949462714
 H         1.8161897297       -3.5274327701       -8.1569743323
 H         1.1124420280       -2.1770835511       -7.3984668574
 H         0.1272552851       -3.5607567193       -7.5943462840
 H         6.2904717997       -7.2568785426       -1.9235939216
 H         5.2324512849       -8.3551453388       -2.6181884037
 H         4.7406427337       -6.6543924234       -2.4855226708
 H         7.8334986086       -5.5943271508       -5.0065345460
 H         7.8320568275       -5.5142145437       -3.2306903876
 H         6.4541778468       -4.6976818119       -4.1414410521
 H        10.6755626045      -13.1251521620       -3.8790809033
 H         9.8550561453      -12.1307239715       -4.9817871481
 H         8.8922498222      -13.3592820344       -4.1376192172
 H        10.5956740964      -12.3793786901       -1.2437676482
 H         8.9586604870      -12.5001819340       -1.2751681217
 H         9.6137754047      -10.9649837800       -0.8651107226
 H        16.1208677256       -6.5387655682       -3.0480096219
 H        15.4392328795       -8.1814853782       -2.5513232655
 H        14.9108353836       -6.7318222089       -1.6829791004
 H        13.6955141816       -4.7589209855       -2.9553650486
 H        13.0853599008       -5.3213201581       -4.6062481099
 H        14.8273467106       -4.8840597884       -4.2554604421
 H        10.4563730800       -9.2444197308       -8.0288470990
 H        12.0370427332       -9.8814533959       -8.4560729997
 H        11.0932193151       -9.5589396672       -9.7002995132
 H        13.6420439011       -8.3541711223      -10.0095181061
 H        13.4430325586       -6.7897400032      -10.2138655190
 H        12.2498795052       -7.7422823067      -11.0829791624
 Na       10.2874067587       -7.7327651766       -5.4616399608
 Na      -12.5108311407        4.1151002170      -13.7372354545
