232

 C        10.9503448539       -5.4876980300       -9.9047561176
 C        10.8914916291       -6.5854498630       -8.9269077577
 O        10.1023063595       -6.4864694166       -7.9669583501
 C        12.0743247917       -7.6160732538       -8.8817347551
 C        12.8629058727       -7.3211915740       -7.6005538372
 O        12.3414723639       -7.3423119779       -6.4640392357
 C        14.4015629138       -7.1638672271       -7.5547945474
 C        14.9947446949       -6.5914572622       -6.2351497582
 C        14.4848593181       -7.4566794122       -5.1315194064
 O        14.3377497813       -8.6371840879       -5.3134757412
 C        14.1314876185       -6.8419764197       -3.7699902905
 C        12.7653346546       -7.5880558621       -3.2460202024
 O        11.7379295690       -6.9950689125       -3.5407651692
 C        12.8085499940       -9.0647945260       -2.6780427468
 C        11.4566727351       -9.6172738443       -2.3441513129
 C        10.5804281525      -10.1913072014       -3.4548558507
 O        10.6805906509       -9.9423125114       -4.6144424999
 C         9.5600030505      -11.2587936258       -3.1145667626
 C         8.1472586806      -10.8178372219       -3.4416701305
 O         7.2687544213      -10.9309784148       -2.5945121596
 C         7.7954895597      -10.5609990603       -4.9427905895
 C         6.7020539058       -9.4779394179       -4.9415094909
 C         7.1756450349       -8.0499667999       -4.5956248552
 O         8.3337564968       -7.6252356313       -4.6906916388
 C         6.1402204980       -6.9067676229       -4.0730424538
 C         5.1306131834       -6.8234966464       -5.2361420236
 O         5.4295378237       -7.1567474487       -6.3110569653
 C         3.6917735047       -6.2453241196       -4.9657059942
 C         2.9921261784       -6.0748722670       -6.2917903834
 C         1.6380445071       -5.4361490990       -6.0954564454
 O         0.6594186677       -6.1718419348       -5.8878732747
 C         1.5107480237       -3.8844727338       -5.9936802830
 C         0.3648632400       -3.4546560645       -5.0217342847
 O         0.6370738984       -2.7063036877       -4.1065111195
 C        -1.0303360201       -3.8639356756       -5.3985382764
 C        -2.0335651159       -2.5874741001       -5.2963120876
 C        -3.5314280435       -2.9547841220       -5.4886589040
 O        -4.0209062473       -4.0960052134       -5.3530480595
 C        -4.4380974070       -1.6874388025       -5.8897805600
 C        -4.2220471301       -1.3789270652       -7.5365402249
 O        -3.0949902218       -1.0225327469       -7.8975870477
 C        -5.3097774781       -1.3793080275       -8.6832637250
 C        -5.1699810217       -0.2684479733       -9.7193928689
 C        -5.9562176078        0.9845265234       -9.4229614947
 O        -6.7701052434        1.0605908756       -8.5010135544
 C        -5.9851856051        2.1131860212      -10.4566186212
 C        -6.9111069835        1.6694684805      -11.5501152484
 O        -6.6295762156        0.5945503998      -12.0435486995
 C        -8.2148712827        2.3721628489      -12.0659482836
 C        -8.6759831450        1.6546799474      -13.3709872260
 C       -10.0108504827        2.1974758505      -13.9259555507
 O       -10.6181804623        3.1025553162      -13.3888615197
 C       -10.4847740736        1.8433827735      -15.4184625199
 C       -11.9252885972        1.2380807846      -15.1831491665
 O       -12.8852271826        2.0176605337      -15.1822436224
 C       -12.2307951372       -0.3020122395      -15.1507212279
 C       -13.6540243559       -0.6192204929      -14.7101518736
 C       -13.8076486397        0.1822939122      -13.4091901987
 O       -12.7918589218        0.2981293715      -12.6737874535
 C       -15.2731607312        0.7446985516      -12.9683428115
 C       -15.0607078416        2.0658283825      -12.1477892917
 O       -14.4341346436        2.9846654238      -12.6655531917
 C       -15.5775231505        2.2629744638      -10.6219217009
 C       -14.9890527558        3.6509968235      -10.1401707765
 C       -15.8250254074        4.9580741699      -10.6158130266
 O       -16.9628526950        4.9856789744      -10.9837386644
 C       -14.9681983111        6.1916626953      -10.5671266840
 C       -14.0477454170        6.1584776184      -11.9093806857
 O       -13.1017152490        5.3967184995      -11.8564989227
 C       -14.2996221703        7.2468053155      -13.0620555294
 C       -14.6799934291        6.5570748059      -14.3869718702
 C       -13.4860131012        6.5714008717      -15.4336422107
 O       -12.5782346383        5.7674863432      -15.3065914022
 C       -13.6179469304        7.5274316403      -16.7445735850
 C       -15.0398300668        6.9410457789      -17.4482231162
 O       -16.0977658436        7.3539176888      -17.0641836054
 C       -14.8725189317        5.7707546111      -18.4843799974
 C       -16.1538875664        5.6429462053      -19.4764167085
 C       -16.1975785248        4.3065318268      -20.4493464626
 O       -16.0672588204        3.1664370264      -20.0231635161
 C       -16.4394919483        4.5457233886      -22.0344524417
 C       -17.8974258956        5.2652648076      -22.2974131169
 O       -18.3417104845        5.9051772239      -21.3691297734
 C       -18.3190438859        5.4006720563      -23.7452023802
 C       -15.2874294835        5.5914284752      -22.5010177550
 C       -16.2865913355        3.2220089044      -22.7851133445
 C       -13.8800895860        9.0301479834      -16.4721867841
 C       -12.4158413350        7.2292029478      -17.7030023471
 C       -15.7761750012        7.5654878422      -10.5902306223
 C       -14.1102467598        6.2578221029       -9.2482038785
 C       -16.0700657213        1.1328429376      -14.1767770199
 C       -15.9139765024       -0.3207817741      -12.0937800659
 C       -10.5123077536        3.1377919081      -16.3807466616
 C        -9.6031185099        0.8141805206      -16.1662823489
 C        -6.4727385447        3.3513328015       -9.7326862481
 C        -4.6509154684        2.4807735044      -10.9941866172
 C        -5.9649797657       -2.1700310503       -5.7145410628
 C        -4.0332718276       -0.4701838304       -5.0376724947
 C         2.8080562679       -3.1035019151       -5.5041790021
 C         1.2024780465       -3.3450610126       -7.4451965113
 C         5.6600511691       -7.2376270627       -2.7317515647
 C         6.8875178176       -5.5039751441       -4.0174209018
 C         9.7174118273      -12.5336029117       -3.9382308206
 C         9.7246101714      -11.8132874147       -1.6768788833
 C        15.3015388988       -7.1847678895       -2.7886808389
 C        13.7900489084       -5.2955770994       -3.9369173328
 C        11.2641426868       -8.9863856038       -8.6021105174
 C        12.7722835675       -7.7237457769      -10.2527610912
 H        11.8485846847       -4.8585189978       -9.7198668568
 H        10.0684318987       -4.9789288908       -9.7754134316
 H        11.1037150999       -5.7340099915      -10.9436866719
 H        14.9105073285       -6.5820918456       -8.3899250134
 H        14.8933375604       -8.1485560234       -7.6708383140
 H        14.7131258763       -5.4648914257       -6.1698387052
 H        16.0765646100       -6.5592623802       -6.4975021712
 H        13.4414730130       -8.9392387359       -1.7095524515
 H        13.3433907386       -9.6548871342       -3.4099269847
 H        10.9502249982       -8.8307182381       -1.7553422401
 H        11.5777498177      -10.4672054277       -1.6476840765
 H         7.4977735910      -11.4448610346       -5.4964381875
 H         8.8208413409      -10.3373422558       -5.4347561449
 H         5.8472111276       -9.6315016093       -4.2555968823
 H         6.2211749377       -9.4171364596       -5.9113204569
 H         3.7436084585       -5.2470643214       -4.5423323374
 H         3.2261746391       -7.0642331073       -4.3753382907
 H         2.8654540874       -7.0761077416       -6.7665762382
 H         3.6955332037       -5.6688699357       -7.0088550422
 H        -1.3284058101       -4.6128955997       -4.6075349530
 H        -1.0753807595       -4.4215264560       -6.4050523335
 H        -1.7658203231       -1.8220055035       -6.0154253815
 H        -1.8167930552       -2.2175168397       -4.3313597782
 H        -6.3649009149       -1.2947637044       -8.3282823730
 H        -5.2402626770       -2.3861111953       -9.1663955268
 H        -5.4714949066       -0.6330831514      -10.7538895841
 H        -4.1304980511       -0.0128757814       -9.7831195004
 H        -8.0189573174        3.4644736603      -12.2164121742
 H        -9.0259076881        2.3628328079      -11.3971468851
 H        -8.7489475415        0.5919658928      -13.0234234009
 H        -7.8431844272        1.8479392905      -14.1152086335
 H       -11.4372332209       -0.7333927871      -14.5661348122
 H       -12.1397190009       -0.5486589462      -16.1846359831
 H       -13.7831982764       -1.6782568609      -14.4531876864
 H       -14.4236029077       -0.3528787728      -15.5117203966
 H       -15.2635250045        1.4511972449       -9.9743022273
 H       -16.6740650443        2.3015753856      -10.6345927292
 H       -13.9261066852        3.6067273599      -10.4411805401
 H       -15.0702093643        3.6328379456       -9.0670087015
 H       -13.4442860378        7.9085827280      -13.0534573680
 H       -15.0796914107        7.9366317812      -12.8153593694
 H       -15.4362807197        7.1864779707      -14.8472763296
 H       -15.0446740114        5.5130981578      -14.2269758141
 H       -14.7960100678        4.8034262858      -18.0639810550
 H       -13.8947760993        5.8719067070      -19.0255691435
 H       -16.3177170201        6.4934836543      -20.1387953796
 H       -17.0751360452        5.5955576565      -18.8609836437
 H       -18.9746551749        6.2501116856      -23.7012577779
 H       -18.8598626917        4.4380628860      -23.9079050254
 H       -17.3903908588        5.5802580033      -24.3153493089
 H       -15.5876005935        6.2566828509      -23.3440779832
 H       -14.4804447597        4.9160532064      -22.6728459607
 H       -15.1170348060        6.1689143011      -21.6123743444
 H       -16.2433461563        3.3108827423      -23.7936695686
 H       -17.0534591120        2.5022618229      -22.6114878702
 H       -15.3161620144        2.7229261235      -22.5740259982
 H       -14.4965119341        9.0446603036      -15.5145460216
 H       -14.2319638889        9.7643417611      -17.2067606185
 H       -12.8722685499        9.4086240740      -16.2477641334
 H       -12.2803206978        6.1478772074      -17.8565443919
 H       -11.4600509924        7.4627634100      -17.2368857465
 H       -12.5108629488        7.7495184984      -18.6433731901
 H       -16.1785222063        7.8809968405       -9.6183784897
 H       -16.5628302219        7.4744203545      -11.2829286377
 H       -15.1618231285        8.4073680743      -10.9407898847
 H       -13.7214463045        5.2394422208       -9.1582725922
 H       -14.7993978785        6.4445224641       -8.3983975746
 H       -13.2701481757        7.0048869341       -9.1914022095
 H       -16.7546663280        1.8395445808      -14.0892696001
 H       -16.5724730148        0.1952941131      -14.6018921017
 H       -15.4847262383        1.5317959163      -15.0014546970
 H       -16.3310661222       -1.1587739293      -12.7088936625
 H       -16.8255719671        0.0846195785      -11.5933804509
 H       -15.2722768673       -0.8459372954      -11.4492698510
 H       -10.8681530823        4.0060336122      -15.8146962084
 H       -10.9941458884        3.0170524540      -17.3291392255
 H        -9.5315039409        3.3871847844      -16.7385597384
 H        -8.7347193560        1.4070333754      -16.3839225338
 H        -9.9135840291        0.5566601025      -17.1424558470
 H        -9.1838258686       -0.1494506695      -15.7040672889
 H        -6.5256532741        4.2511664237      -10.5146411559
 H        -5.7950683299        3.6634814506       -8.9491020399
 H        -7.4620462452        3.2811398451       -9.2489280893
 H        -4.7878985311        3.2132321217      -11.7552586446
 H        -4.2413818931        1.5903232955      -11.5267261225
 H        -3.9195304557        2.7195996527      -10.2051502741
 H        -5.9646469070       -3.1280743527       -6.2256532805
 H        -6.7385941072       -1.4883166270       -6.0683124008
 H        -6.1860234104       -2.2681043284       -4.6296879448
 H        -4.3637963140        0.5288715622       -5.4445501462
 H        -2.9881328543       -0.4386441399       -4.9894409570
 H        -4.3287369111       -0.5999335384       -4.0881272937
 H         2.4499246649       -2.1260350088       -5.2877165499
 H         3.5756368819       -3.0247926281       -6.2611061103
 H         3.1622152123       -3.4396761783       -4.6016839038
 H         1.9646288034       -3.6062751303       -8.1735125903
 H         1.1542141778       -2.2922351666       -7.3796671499
 H         0.2149539019       -3.7149401275       -7.8208303201
 H         6.3385269122       -6.9967255222       -1.9075447547
 H         5.3471636699       -8.3539196407       -2.5955884496
 H         4.7550810202       -6.7278605172       -2.5505039829
 H         7.1732499221       -5.2672914682       -5.0047030053
 H         7.8050588268       -5.7963303430       -3.4738769457
 H         6.2730197358       -4.7433429746       -3.5390787957
 H        10.7637026067      -12.8599545172       -3.9468513111
 H         9.4006889469      -12.3288109416       -4.9882273609
 H         9.0339818319      -13.2665752766       -3.5556592569
 H        10.6094738242      -12.4569595242       -1.6831925998
 H         8.9892714629      -12.5659313316       -1.5008996384
 H         9.7455510650      -11.0829385050       -0.8788247291
 H        16.1970503510       -6.7395897126       -3.1064140640
 H        15.3807258607       -8.2490504062       -2.7306649872
 H        14.9911721437       -6.8346181624       -1.7545076656
 H        13.7985264784       -4.8873173336       -2.8990031940
 H        12.8960601295       -5.1531932862       -4.4660152932
 H        14.6530418672       -4.7680334770       -4.4043278711
 H        10.2745487506       -8.7782816360       -8.1813198011
 H        11.7781609259       -9.7372339972       -7.9759217538
 H        11.1704772187       -9.6472824963       -9.4995592554
 H        13.4305298431       -8.6312464706      -10.3360323830
 H        13.6506437005       -7.0398680285      -10.2653854863
 H        12.0903352599       -7.3962245391      -11.0264585575
 Na       10.4549789654       -7.7029242697       -5.4786185483
 Na      -12.5385291441        4.0889110643      -13.9295292030
