232

 C       -19.2109919922       -7.7863722752       -2.0027689405
 C       -18.5028418065       -9.1273232901       -1.8012189292
 O       -17.6013959731       -9.4807487815       -2.5135652423
 C       -19.1559078360      -10.1350533593       -0.6406044463
 C       -17.9537993609      -10.7279190852        0.2857378802
 O       -17.4118176911      -11.7744000802        0.0374807015
 C       -17.3266566156       -9.7755996165        1.3415186829
 C       -15.8502283915       -9.8559976864        1.3832652714
 C       -15.2487204465       -8.6609213989        0.5234260837
 O       -15.9873492586       -7.7721648194        0.0848503336
 C       -13.7770114325       -8.8222083920       -0.0273230543
 C       -13.8816180421       -9.8679706137       -1.1843633796
 O       -14.2481712704      -10.9978849521       -0.9314736251
 C       -13.4189686127       -9.4480892347       -2.5601058033
 C       -13.1436133712      -10.4775931875       -3.6822193387
 C       -14.1873533571      -10.6462960520       -4.7930622185
 O       -15.3329220456      -10.7995113476       -4.4982114606
 C       -13.7738182091      -10.6590002153       -6.3707174567
 C       -13.3292243562       -9.1697242137       -6.7209390370
 O       -12.4210589560       -8.6518512795       -6.0626128371
 C       -13.9100884531       -8.5988626578       -7.9661617292
 C       -13.1011371988       -7.3289994143       -8.1615883463
 C       -13.8673267729       -6.1695731951       -8.8095237567
 O       -14.8791317437       -5.7846422062       -8.2657787177
 C       -13.4390602533       -5.5602802500      -10.2123049289
 C       -12.0526191164       -4.7911240972      -10.0068287008
 O       -11.0312127932       -5.3524566660       -9.6033399241
 C       -11.9846443996       -3.2115874562      -10.2394117898
 C       -10.5710076498       -2.6773672916       -9.7846676643
 C       -10.3899822518       -1.2073652825      -10.2962792984
 O       -11.2698367940       -0.6137822383      -10.8087952384
 C        -9.0156097908       -0.5248511201      -10.1930159273
 C        -7.8283051778       -1.1707485562      -11.0485060308
 O        -8.0760298383       -1.7562918808      -12.0904840067
 C        -6.4341646796       -0.8174485033      -10.5299393781
 C        -5.4809196656       -0.8278990183      -11.6525313452
 C        -4.4647374500        0.4194488469      -11.6255387880
 O        -4.7481749681        1.4266717830      -11.0281468362
 C        -3.0622793366        0.1716183937      -12.4422374906
 C        -2.1619420911       -0.8159675727      -11.6143880341
 O        -1.3946368587       -1.6270078967      -12.1032691320
 C        -2.1257285387       -0.6795089190      -10.0831430821
 C        -0.7382151061       -0.9129118456       -9.3811771974
 C        -0.4865111691       -0.0128244525       -8.2478059034
 O        -1.1971866647        0.9898599076       -7.9314593186
 C         0.9305267414       -0.2347048248       -7.4462325547
 C         2.0263653676        0.4040909554       -8.4038686557
 O         2.8551673411       -0.2275952275       -9.0451368535
 C         2.0149416296        1.8906929424       -8.3834369971
 C         3.4119821279        2.3990989089       -8.7608645074
 C         3.5803587564        3.8026570238       -9.2402593572
 O         2.6473698354        4.6358194960       -9.1732843987
 C         4.9653661070        4.3235727939       -9.8060157923
 C         4.6541938124        4.3475082952      -11.4679302165
 O         5.3654942696        3.6723890662      -12.1633297053
 C         3.6762659432        5.4225768089      -11.9886239360
 C         4.4198551035        6.7083919842      -12.2913069229
 C         5.0218933158        6.7610881824      -13.7075473661
 O         5.3051460288        5.7893447350      -14.3897762298
 C         5.1592909012        8.2044871531      -14.2625594099
 C         5.9648756133        8.1879216416      -15.6783376584
 O         5.4637456574        8.8558821456      -16.5710218006
 C         7.3651339713        7.4173119360      -15.7859908230
 C         7.4992046531        6.8213718593      -17.1817205904
 C         7.1889473715        5.3452030734      -17.3795512762
 O         6.5810550536        4.6190503082      -16.6218945929
 C         7.8252592367        4.5566783347      -18.6134636757
 C         9.2889124291        4.2439485376      -18.2968601208
 O         9.8247048714        4.7727181161      -17.3370414202
 C        10.1778176016        3.5284503729      -19.3349773862
 C        11.1052618209        2.6286094070      -18.6224773170
 C        10.4277270635        1.3339334146      -18.1589656578
 O         9.2782647416        1.1804627520      -18.5862299212
 C        11.1171626067        0.2146577725      -17.3615516929
 C        10.3374409354        0.1583009705      -16.0043447754
 O        10.9246697718        0.6588503843      -15.0469935508
 C         8.9914662957       -0.4883422338      -15.8357227868
 C         8.2449299237       -0.3504892872      -14.4650851377
 C         6.9595801240        0.5389770894      -14.3003336445
 O         7.0813159142        1.7321568724      -14.0646886366
 C         5.4952117833       -0.0286181502      -14.6765616271
 C         5.0234616489        0.7852961349      -15.8580497936
 O         5.0699210190        1.9809719706      -15.9190021444
 C         4.3266273537        0.1174355382      -17.0661151701
 C         5.4466603702       -1.5814631688      -14.9116024047
 C         4.4464503935        0.3013017025      -13.4554445299
 C        11.0472144261       -1.1384003438      -18.1173850324
 C        12.6641215778        0.3239396651      -17.0482930262
 C         7.0807783339        3.2530318886      -18.8916755547
 C         7.8710968918        5.4433721643      -19.9245595142
 C         3.7422268566        8.8255781042      -14.6328233897
 C         5.9535842771        9.0798949332      -13.2953908173
 C         5.1274065999        5.7487450697       -9.2089226092
 C         6.1926591869        3.3853391272       -9.6124885537
 C         0.7280559110        0.2708694694       -5.9883774647
 C         1.2700740335       -1.7078667881       -7.3997785493
 C        -3.2204302748       -0.5345467775      -13.7831280619
 C        -2.3516342200        1.5687535544      -12.5612360546
 C        -9.1559886297        0.9672666596      -10.6334751252
 C        -8.5376910045       -0.5642648711       -8.6572593765
 C       -13.3422106631       -6.8184408927      -11.1230787389
 C       -14.5832135716       -4.7219474834      -10.7561706818
 C       -12.5234584198      -11.6119422112       -6.6207125071
 C       -14.9236849527      -11.1039127944       -7.2575174014
 C       -13.2389208220       -7.4182117016       -0.5494653755
 C       -12.7505542481       -9.2204412747        1.1259064338
 C       -20.2310223090       -9.4840132127        0.1735905925
 C       -19.6853435852      -11.3484046418       -1.5336968697
 H       -18.7192354455       -7.0737101513       -1.2930390375
 H       -20.2406803610       -7.9220436814       -1.7378705181
 H       -19.0017612918       -7.4852353387       -3.0182731445
 H       -17.7977311736       -9.9744012690        2.3004043115
 H       -17.6336612101       -8.7566023447        1.1639803624
 H       -15.4161779021      -10.7966793344        1.0153878217
 H       -15.5606104553       -9.8082364013        2.4189042590
 H       -12.5141203560       -8.8410314944       -2.4607639441
 H       -14.1083529091       -8.6652147759       -2.9982558425
 H       -13.0034761067      -11.4741136607       -3.2761856452
 H       -12.2362742618      -10.1991406330       -4.1097200367
 H       -14.9518555043       -8.5027881970       -7.7215019834
 H       -13.7392458242       -9.3906006358       -8.7079619842
 H       -12.1932021726       -7.5635846576       -8.7585164379
 H       -12.8314784686       -6.9286683432       -7.1516006869
 H       -12.7803932626       -2.7360113429       -9.7000668030
 H       -12.0942611157       -3.0452473160      -11.3355983730
 H        -9.7888378043       -3.3710410434      -10.1694249811
 H       -10.5159438711       -2.8206358409       -8.6861626462
 H        -6.0342832977       -1.5200225924       -9.8081832619
 H        -6.4752970144        0.2474251169      -10.0635173546
 H        -5.9537199865       -0.8991105263      -12.6559988729
 H        -4.8162376219       -1.6785002307      -11.6223443649
 H        -2.8950743288       -1.4230979933       -9.7458130101
 H        -2.5373732295        0.2557906347       -9.8370634087
 H         0.0331103078       -0.9131049595      -10.1823123427
 H        -0.7467265173       -1.9042979965       -9.1528754572
 H         1.8385436388        2.2337389399       -7.2705042857
 H         1.3707888659        2.3194624922       -9.1512983207
 H         3.8312772973        1.6771627734       -9.5065379992
 H         4.0827906450        2.1963146673       -7.8645251041
 H         2.8085771775        5.4692251256      -11.3717377091
 H         3.2084878146        5.1716242929      -12.9485968703
 H         5.2209984017        6.9510426915      -11.5888774592
 H         3.7543207914        7.5569242848      -12.3273726021
 H         7.5339143463        6.6638802094      -15.0016245958
 H         8.0953255150        8.2360717562      -15.6593662536
 H         8.4675633211        6.9103497213      -17.5211939276
 H         6.8716107505        7.4701321301      -17.9300588126
 H        10.7816820813        4.3331087898      -19.8402500790
 H         9.7514732414        3.0730554697      -20.1705052808
 H        11.4501292944        3.2137545724      -17.7539166366
 H        11.9847956953        2.4273996964      -19.3252792535
 H         9.1428818500       -1.5348765424      -15.8935307602
 H         8.3536236619       -0.1423617351      -16.6879692315
 H         8.8762192827        0.2139323548      -13.8488018413
 H         8.1023816030       -1.3709097053      -13.9452728523
 H         4.8234677230       -0.6936260112      -17.5920201058
 H         4.0989883901        0.8868871615      -17.8101200040
 H         3.3151260283       -0.2918660866      -16.7239650629
 H         4.4435853093       -1.9774187256      -14.7265500390
 H         6.1023003506       -2.2397198651      -14.2549464433
 H         5.7005299199       -1.9545911595      -15.9238377395
 H         3.4726990382        0.0246067275      -13.8961983031
 H         4.5215555703        1.3391736238      -13.3428718609
 H         4.6541969308       -0.3126263891      -12.5667327471
 H        11.3526840056       -0.9388977079      -19.1374214602
 H        10.0664507824       -1.6448895938      -18.2118117027
 H        11.7311657176       -1.8308474575      -17.6648233257
 H        13.2518768680        0.7232252875      -17.8463755597
 H        13.0017737877       -0.6183780619      -16.6746719613
 H        12.8146215097        1.1021881016      -16.3138823005
 H         6.1923643472        3.4335522564      -19.4040432361
 H         6.7267174809        2.8360375973      -17.9740523419
 H         7.6594468970        2.5380458509      -19.3972933040
 H         8.8096112427        6.0481530313      -19.9969941347
 H         7.0101509167        6.1161657520      -20.1511210951
 H         7.9348288550        4.6959801893      -20.7248210042
 H         3.0602454566        8.6387661681      -13.7772003708
 H         3.4045772089        8.5045128816      -15.6358525761
 H         3.7784392394        9.9219356083      -14.6902162245
 H         6.3063586560       10.0716238011      -13.6428072730
 H         6.9325796244        8.5747217978      -13.0106398645
 H         5.3666075678        9.1433994146      -12.3789627789
 H         5.1753712246        5.6009209487       -8.1450692188
 H         4.2041604974        6.3409532294       -9.5495510608
 H         6.0510272173        6.2324077912       -9.4582204216
 H         7.0671913825        3.4709179601      -10.2440833718
 H         5.9228796620        2.3764487029       -9.7180923616
 H         6.5053835114        3.5747829872       -8.6090381852
 H         0.4646446787        1.3378767597       -5.9765149933
 H         1.6761132229        0.1221869687       -5.4884842492
 H         0.0246934248       -0.3560720483       -5.4412478437
 H         0.6604702738       -2.3265439714       -6.8093496397
 H         2.2839552976       -1.7635123490       -7.0289639736
 H         1.5550776313       -2.0580163773       -8.3607046037
 H        -3.9115543556       -1.3435658362      -13.7880766407
 H        -2.3154794129       -0.9633256759      -14.2240683501
 H        -3.5733361914        0.1983450938      -14.4177931279
 H        -1.4161564186        1.2868728288      -13.0955075926
 H        -2.0484837725        2.0421503570      -11.6250802863
 H        -2.9772520158        2.2555049139      -13.0752377455
 H        -9.7196521284        1.5326375672       -9.8216029858
 H        -9.6992217105        1.0364412585      -11.5248861062
 H        -8.1718777659        1.3457153888      -10.8206719258
 H        -9.3864807536       -0.1653500957       -8.1245258479
 H        -7.6594584818        0.0126404611       -8.4445654914
 H        -8.4907942346       -1.6294227824       -8.5732362355
 H       -13.1940204378       -6.6864003436      -12.1699145752
 H       -14.1640932999       -7.5552825331      -11.0471608379
 H       -12.5334506906       -7.4007753777      -10.7220526309
 H       -15.4174718453       -5.4218782736      -10.6722486309
 H       -14.4652148077       -4.6188631015      -11.8231669856
 H       -14.7090342865       -3.8126889104      -10.1484855717
 H       -11.6606385331      -10.9516413294       -6.3730491607
 H       -12.5183408768      -11.9143809219       -7.6697889744
 H       -12.4792345216      -12.3975516448       -5.9045148032
 H       -15.8219114811      -10.4557319179       -7.1129636351
 H       -15.1916268847      -12.1561087662       -7.0768147897
 H       -14.7222376494      -11.1504685569       -8.2441097037
 H       -13.8460206818       -7.0437558693       -1.3112903330
 H       -12.1982990548       -7.4743731315       -0.9040374258
 H       -13.2179197527       -6.7390028174        0.3070991508
 H       -12.8879476506      -10.2887929451        1.2912679993
 H       -12.9332577800       -8.5318488724        1.9173260738
 H       -11.7471354727       -8.9013211517        0.7042278801
 H       -19.9356818265       -8.4671283532        0.6651147526
 H       -20.5403382406      -10.2512544405        0.9864337067
 H       -21.0869495517       -9.3419438732       -0.4463535170
 H       -20.5331771310      -11.8790262357       -1.0418944502
 H       -18.9297771642      -12.0562088342       -1.6980548993
 H       -20.0698041348      -10.9384339959       -2.4383977853
 Na      -16.1562887395      -11.1279914540       -2.2348825499
 Na        5.7304445653        3.6417392760      -14.4849348385
