232

 C        10.6661986240       -5.5770632201       -9.6677873848
 C        10.9853760429       -6.5039906780       -8.4657555056
 O        10.2696428398       -6.4575513593       -7.5060265855
 C        12.2654077296       -7.4520909241       -8.5028795650
 C        13.1975096405       -6.9711511896       -7.3618514211
 O        12.7669919306       -6.8252416976       -6.2634787682
 C        14.7706798210       -6.9688190506       -7.6235036840
 C        15.4511027322       -6.6200513295       -6.3406313301
 C        14.9085320635       -7.6065337810       -5.2526492934
 O        14.9644465300       -8.8076782656       -5.4173146814
 C        14.2744189808       -6.9507315922       -3.8842923882
 C        12.8769375308       -7.6497127517       -3.7228477504
 O        11.8262819480       -7.0224962606       -3.8475772656
 C        12.9468582611       -9.2430240357       -3.3468202163
 C        11.6090270480       -9.7470071245       -2.6611376628
 C        10.5949555074      -10.4409569894       -3.6257555262
 O        10.5380719600       -9.8565018495       -4.7092839401
 C         9.4990273970      -11.5040007526       -3.2832859532
 C         8.1873687725      -10.6836913838       -3.4722106694
 O         7.6160759816      -10.2628704836       -2.5280978262
 C         7.7681212736      -10.4137230603       -4.9235962004
 C         6.7836781307       -9.2721508940       -5.0747743712
 C         7.2479928712       -7.9495218359       -4.5669450139
 O         8.3305570104       -7.4998688408       -4.8339379073
 C         6.1356161895       -6.9310419373       -4.0430550824
 C         5.0379435774       -6.8683197395       -5.2786791693
 O         5.3324126803       -7.1256124431       -6.5016851867
 C         3.6672226113       -6.3180245443       -5.0943956018
 C         3.0251198951       -5.9184575342       -6.4723678862
 C         1.6350178408       -5.2935135323       -6.2720429726
 O         0.6605125086       -5.9756880588       -6.1271727848
 C         1.3611106033       -3.7229122199       -6.1579341374
 C         0.1331222218       -3.6552659354       -5.1593738390
 O         0.2715273039       -3.2557844678       -4.0181482445
 C        -1.3068194479       -3.9791512435       -5.7166217461
 C        -2.0124247656       -2.5381176721       -5.7901714558
 C        -3.4928519409       -2.7505603144       -5.9685158623
 O        -3.9459680397       -3.8353787568       -6.1831919025
 C        -4.5220944250       -1.5149566820       -5.8998692514
 C        -4.3696343396       -1.0285238423       -7.3862263517
 O        -3.2781313027       -0.7078084163       -7.8275195937
 C        -5.5599407434       -1.3191245026       -8.3507799583
 C        -5.3867736813       -0.4105136546       -9.5932660825
 C        -6.1017985992        1.0031544544       -9.3244353620
 O        -6.5683017106        1.4029124701       -8.2998411498
 C        -6.0866853849        1.9996808514      -10.5630942926
 C        -6.9332023069        1.3677341361      -11.6651090044
 O        -6.5486325056        0.2952804230      -12.0910557241
 C        -8.0654451380        2.0967093919      -12.4475643535
 C        -8.7612676190        1.2282766593      -13.5359787000
 C       -10.0626208396        1.9692486545      -14.1684561807
 O       -10.4873459525        2.9596854755      -13.5959770002
 C       -10.5810365113        1.4679668631      -15.5532225475
 C       -12.1149595926        1.2313055074      -15.3780059812
 O       -12.9689872621        2.0770520884      -15.4427521814
 C       -12.5769648375       -0.2058120504      -15.0333310203
 C       -14.0317282549       -0.1854877089      -14.5480413415
 C       -14.1211837958        0.0441236456      -12.9939682419
 O       -13.1646353461       -0.0123979861      -12.2899317973
 C       -15.4145868033        0.5806283282      -12.3772625088
 C       -15.1496524226        2.0063843192      -11.7694617291
 O       -14.7175289804        2.8633044182      -12.5050857807
 C       -15.6716291738        2.3868207399      -10.3803559333
 C       -15.0576100021        3.7205013576       -9.9420616089
 C       -15.5900085626        4.9431927783      -10.6326910334
 O       -16.6772229083        5.0064992633      -11.2295796686
 C       -14.7592845243        6.3299227832      -10.5906581154
 C       -13.9857283362        6.2043540508      -11.9245695908
 O       -13.2181973551        5.2619238322      -12.0365176460
 C       -14.2096647383        7.2690468215      -13.0361991647
 C       -14.6176506521        6.6311620954      -14.3779945101
 C       -13.4725208186        6.4868542500      -15.4103818478
 O       -12.4587081530        5.7952813094      -15.2314992949
 C       -13.6263851701        7.1135024390      -16.7795037690
 C       -14.9583260415        6.6188110691      -17.4630143128
 O       -15.9866606326        6.6284590228      -16.8155488714
 C       -14.8051514888        6.2316437733      -18.9014401120
 C       -16.1139992314        6.1304369835      -19.7427909757
 C       -16.0904208559        4.7370612909      -20.4438433875
 O       -15.7907257682        3.7380601408      -19.8466974517
 C       -16.5003597692        4.8990510155      -22.0271773428
 C       -17.9184229222        5.6944648317      -22.1815269179
 O       -18.7857231228        5.5800833947      -21.3546522372
 C       -18.1910107547        6.3780224960      -23.5581330735
 C       -15.3004420081        5.6601001850      -22.6653956364
 C       -16.7214779915        3.4279587136      -22.5893786796
 C       -13.9488922361        8.6404616398      -16.4783833560
 C       -12.2470786742        7.0239011488      -17.5291570598
 C       -15.7044872813        7.4902609700      -10.3862571978
 C       -13.7882952761        6.2841927511       -9.4148443260
 C       -16.5421148649        0.7169695486      -13.4727046563
 C       -15.8485058464       -0.4345973322      -11.2768450220
 C       -10.3068851754        2.5281733245      -16.6933138587
 C        -9.8676018563        0.1643969585      -15.8240165453
 C        -6.6745700193        3.2905516136      -10.1076220842
 C        -4.6292618927        2.1203544880      -11.0980062918
 C        -5.9336944306       -1.8380790975       -5.4495708335
 C        -3.9216415028       -0.4913395450       -4.8729289327
 C         2.5645536493       -2.9064908923       -5.6198172196
 C         0.9702574058       -3.1030256026       -7.4944970532
 C         5.4313412613       -7.5048360704       -2.7398535804
 C         6.8686093803       -5.5888212345       -3.6776981210
 C         9.4860438240      -12.7478659566       -4.1423452573
 C         9.5976329035      -11.8748479936       -1.8577471540
 C        15.1156287766       -7.4013063853       -2.6572270287
 C        14.3458924117       -5.3968416396       -3.9644880151
 C        11.7748147284       -8.8847547897       -8.0689602344
 C        12.9007561041       -7.5127858337       -9.9136999830
 H        11.4911104710       -5.1653514905      -10.1213115198
 H         9.9987297834       -4.7972521396       -9.2357976554
 H        10.1014793145       -5.9957526453      -10.4772585556
 H        14.9034944553       -6.2365647202       -8.4803547551
 H        15.1279197566       -7.9886584921       -7.9219183266
 H        15.0909339338       -5.6426684588       -6.0752957355
 H        16.5863655850       -6.7310502416       -6.3743778353
 H        13.7213450197       -9.4819383089       -2.6158411066
 H        13.3354042491       -9.6017574991       -4.3344442319
 H        10.9887852561       -8.8386878100       -2.5206444774
 H        11.7759154399      -10.1437105064       -1.6245693163
 H         7.3604894639      -11.4534429692       -5.2035795683
 H         8.6851796510      -10.2645566628       -5.5182792090
 H         5.8005647897       -9.4534485365       -4.7438425741
 H         6.6868417692       -9.0054550093       -6.1829639167
 H         3.6020579210       -5.4280882242       -4.4093033923
 H         3.0464313138       -7.0829279835       -4.6055845312
 H         2.7900004913       -6.8056763162       -7.1159825967
 H         3.6784092388       -5.1498904331       -6.9487075730
 H        -1.9531884785       -4.4156997436       -4.8975364286
 H        -1.3403563226       -4.4891306423       -6.7055223248
 H        -1.8183338020       -1.9531712283       -6.6699665945
 H        -1.6334706448       -1.9083711579       -5.0354022041
 H        -6.4974792231       -1.0197593884       -7.8912943405
 H        -5.6140208417       -2.4287174589       -8.7258256878
 H        -5.7899405432       -0.8835752202      -10.5102106218
 H        -4.3176099231       -0.2889552002       -9.7719004401
 H        -7.6265397723        3.0237083658      -12.8466095291
 H        -8.7988333200        2.5074752171      -11.7756628451
 H        -8.8354786711        0.2142021704      -12.9902194949
 H        -8.0296382500        1.1012464677      -14.3726153288
 H       -11.9671741946       -0.4527427139      -14.1416416883
 H       -12.4708622867       -0.8576485640      -15.8455583700
 H       -14.4631448997       -1.1948785512      -14.7740891984
 H       -14.6584873951        0.4788335811      -15.0888782816
 H       -15.4019025363        1.5857268715       -9.6210720092
 H       -16.8111036969        2.4459604770      -10.4643757923
 H       -14.0353688715        3.6176682919      -10.1535692947
 H       -14.9461842031        3.8437145727       -8.8468029352
 H       -13.3075595558        7.8043634360      -13.2444981407
 H       -14.9804371513        8.0086598735      -12.7437864510
 H       -15.4426768341        7.2224573127      -14.8342178168
 H       -15.0925504978        5.6398552313      -14.2729420646
 H       -14.3935978603        5.2200787039      -18.7146515136
 H       -14.0192764318        6.8040310122      -19.3762653727
 H       -16.2449385859        6.9667609184      -20.4598874724
 H       -16.9354897347        6.2226573118      -19.0258660899
 H       -18.2950336778        7.4524226030      -23.2577895564
 H       -19.1535637091        5.9064980378      -23.7617593721
 H       -17.4649709977        6.2315845593      -24.3789207302
 H       -15.6249334585        6.1568733852      -23.5609301841
 H       -14.4936119787        4.9417200096      -22.9538022176
 H       -14.9894000532        6.4803684558      -21.9823584741
 H       -16.6265437529        3.2642368858      -23.6874509861
 H       -17.6996796934        3.0713156033      -22.3805075735
 H       -16.1093514987        2.7405318538      -22.1320473142
 H       -14.8568335029        8.8753086696      -15.9032076882
 H       -13.8475439915        9.2620565914      -17.4007080988
 H       -13.2290740659        8.9477071144      -15.6795338080
 H       -12.0444609284        6.0430972657      -18.0323542929
 H       -11.3942519527        7.3094986025      -16.9210126762
 H       -12.2254126567        7.7531423945      -18.3686418973
 H       -16.0324699115        7.5382871177       -9.3899151851
 H       -16.6284544748        7.3617474351      -11.0262217180
 H       -15.1114662209        8.3563329714      -10.6480346495
 H       -12.8366411346        5.7269031692       -9.4790663007
 H       -14.4976654960        6.1430947228       -8.5656061563
 H       -13.4563920274        7.2921581155       -9.2588403623
 H       -17.5027122727        1.2613877253      -13.0318977547
 H       -16.9296387506       -0.1545295358      -13.8826124635
 H       -16.2184838197        1.2737127913      -14.3126247289
 H       -16.2681039085       -1.3674605360      -11.6323163513
 H       -16.6575862397        0.0369113017      -10.7350163614
 H       -14.9704027042       -0.4837460668      -10.5679846964
 H       -10.7965033217        3.4594309647      -16.6006878468
 H       -10.7036776200        2.1434717090      -17.6719998475
 H        -9.2343628239        2.6093109781      -16.7627566012
 H        -8.7903120541        0.0972616213      -15.9374999102
 H       -10.2742781653       -0.4444704462      -16.6641494683
 H       -10.0103507936       -0.4077825183      -14.9595432506
 H        -6.7901922214        3.9470432959      -10.9557809176
 H        -6.0335324710        3.8647757273       -9.3266294726
 H        -7.6963725014        3.0670073255       -9.6119011960
 H        -4.5768976523        2.9282037097      -11.8870041038
 H        -4.2164597732        1.2150116297      -11.4487383492
 H        -4.1128957598        2.6974426182      -10.3754902191
 H        -6.2214347835       -2.8536669118       -5.6092749105
 H        -6.5720037405       -1.0211157259       -5.7962070529
 H        -5.9358619747       -1.7840057286       -4.4161326590
 H        -4.4647761568        0.3247944294       -4.7128297059
 H        -2.9334293521       -0.1729991252       -5.1139387820
 H        -3.8467655308       -0.9877034568       -3.8706869376
 H         2.4090328367       -1.8726401412       -5.7314425717
 H         3.3894607212       -3.1614356451       -6.2238294797
 H         2.8352955111       -3.1418757842       -4.5963512744
 H         1.7676195452       -3.2797067620       -8.1455756985
 H         0.8154162479       -2.0479920139       -7.2668806470
 H         0.2665837014       -3.6384972981       -7.9845582251
 H         6.1483795137       -8.2015892923       -2.2187552226
 H         4.5446172190       -7.9828079249       -3.0344118921
 H         5.1696240989       -6.8472928212       -1.8749820173
 H         7.6374444573       -5.3453632996       -4.4427682578
 H         7.2153655520       -5.8319795056       -2.7196134503
 H         6.1861785673       -4.7402180521       -3.5683642908
 H        10.3697929263      -13.3982726582       -3.9447218048
 H         9.5388170535      -12.6001709025       -5.1873485290
 H         8.6259312860      -13.2742941117       -3.7597567599
 H        10.5078864663      -12.4262096109       -1.7486204649
 H         8.6592195895      -12.3543148006       -1.5405052429
 H         9.7477031791      -10.9523393215       -1.3186104069
 H        15.9299143183       -6.6871658811       -2.3661134839
 H        15.4927327316       -8.4241552996       -2.8882624860
 H        14.4725135905       -7.4462697852       -1.8201649524
 H        13.8688100128       -5.1259081573       -3.0477745747
 H        13.6837462581       -5.0402135534       -4.7946341580
 H        15.3301972811       -5.0610397287       -4.1897449158
 H        11.8213562041       -9.0314266276       -6.9676416319
 H        12.3981626313       -9.6840300918       -8.5455564156
 H        10.7306563936       -9.1290209150       -8.3150186861
 H        13.5183542955       -8.4487534647      -10.0212735989
 H        13.5154783190       -6.6193676030      -10.2397704306
 H        12.0722592612       -7.7365096871      -10.6673405884
 Na       10.4431815879       -7.6682838091       -5.5463862840
 Na      -12.5510209415        3.9717178169      -13.8278392022
