232

 C        10.6445502248       -5.6386783695       -9.6241182356
 C        10.9258297463       -6.4783346513       -8.4302101493
 O        10.1726497656       -6.5548130902       -7.4571430660
 C        12.2289819497       -7.4422411229       -8.5313785127
 C        13.2767705741       -6.9604372891       -7.4878266924
 O        12.9465879617       -6.7717140836       -6.3198358242
 C        14.7840232210       -6.8967955045       -7.7228985623
 C        15.5445341651       -6.7326353834       -6.3712117891
 C        15.0563778692       -7.5827087359       -5.1931210182
 O        15.0405270607       -8.8309576849       -5.2915009354
 C        14.4322204453       -7.0147352876       -3.8242747776
 C        13.0210275659       -7.7579518060       -3.7474236805
 O        12.0122241809       -7.0886246997       -3.8191144645
 C        12.8738461497       -9.2364791332       -3.4154272145
 C        11.6217503321       -9.6970413881       -2.6774825665
 C        10.6842519913      -10.3280226588       -3.7343537819
 O        10.6443795097       -9.9781658787       -4.9322704012
 C         9.5576745772      -11.4642297968       -3.2944330534
 C         8.2079118770      -10.5662463574       -3.4832960561
 O         7.6956232068      -10.1245621410       -2.4891868615
 C         7.7026288124      -10.4036641618       -4.9614472460
 C         6.6802874371       -9.3721508483       -5.2931610723
 C         7.1359201970       -7.9393856954       -4.6943855088
 O         8.3199101823       -7.6304299041       -4.6106577228
 C         6.0602718146       -6.9542756984       -4.0746983052
 C         5.0732794822       -6.7080989340       -5.2908018767
 O         5.5696509707       -7.1630499418       -6.3323150383
 C         3.7077697041       -6.1261778289       -5.1062523436
 C         3.0232305905       -5.7587207778       -6.4879942851
 C         1.6012044500       -5.2523575984       -6.3064654104
 O         0.6398171312       -6.0360779628       -6.2100342864
 C         1.3240391605       -3.7145062977       -6.1772314968
 C         0.0417777375       -3.5979765584       -5.1534637447
 O         0.2510350618       -3.3719270624       -4.0139607229
 C        -1.2961677311       -3.9059094644       -5.6566272570
 C        -2.0505202223       -2.5807324184       -5.8217486841
 C        -3.5341623497       -2.7718566926       -5.9181789951
 O        -3.9925406999       -3.8523161238       -6.3653054336
 C        -4.5132302800       -1.5111847752       -5.7707940340
 C        -4.3990556248       -0.9835483945       -7.4047688889
 O        -3.4307532063       -0.4656672193       -7.8444043978
 C        -5.5997334517       -1.2748688849       -8.2743939887
 C        -5.5232329909       -0.3948188352       -9.5587437102
 C        -6.1299538312        0.9872672600       -9.4021546645
 O        -6.5029112219        1.2974852473       -8.2938728473
 C        -6.1027046494        2.0731986041      -10.6055769609
 C        -6.9184413309        1.3137467688      -11.7439272512
 O        -6.6105724356        0.1709423146      -12.1197437132
 C        -8.1807742967        2.0470408628      -12.3564643474
 C        -8.7391732694        1.2520575274      -13.5380242394
 C        -9.8410383167        1.9413252210      -14.2302785130
 O       -10.4199141983        2.8815076766      -13.6938855620
 C       -10.5866065488        1.2914246713      -15.5082761330
 C       -12.1972263378        1.1999878744      -15.2898830482
 O       -12.9123294062        2.1518636451      -15.4395198073
 C       -12.7281187302       -0.2418376125      -15.0214423263
 C       -14.1183921792       -0.1102955735      -14.4426456641
 C       -14.1141131121        0.1162971692      -12.9466800564
 O       -13.1328348012       -0.1844652530      -12.2847377404
 C       -15.5099516038        0.6149977773      -12.2809288533
 C       -15.2830056963        2.0478199215      -11.7727079286
 O       -14.7305099074        2.8485154422      -12.5886325772
 C       -15.4588653904        2.3947785527      -10.2986569431
 C       -15.0774760486        3.8330646052       -9.9199175387
 C       -15.6901060986        5.0152614963      -10.6700649748
 O       -16.7118518206        5.0147714573      -11.2801228800
 C       -14.7779723705        6.3606922053      -10.4858776880
 C       -13.9029301850        6.2094857867      -11.8963249288
 O       -13.1157659669        5.2609926292      -12.0142930933
 C       -14.1483406455        7.1965512169      -13.0063993157
 C       -14.6124581874        6.5631299013      -14.3177079972
 C       -13.5626624958        6.4273860453      -15.3668797537
 O       -12.6947289106        5.5862921749      -15.1553259930
 C       -13.5611441315        7.3296112401      -16.6665203836
 C       -14.9127495978        6.6879097105      -17.5352566287
 O       -15.9138617513        6.4468701129      -16.9443895174
 C       -14.8191750768        6.3081965343      -19.0389016257
 C       -16.1668585217        6.0814332781      -19.7417559557
 C       -16.1726835945        4.8157528348      -20.5469744759
 O       -15.8259252280        3.7730752762      -19.9829880146
 C       -16.5655425163        4.8851437329      -21.9819606334
 C       -17.9566795912        5.7272677083      -22.1807907141
 O       -18.7590444256        5.6610293910      -21.2630996931
 C       -18.0917240171        6.5293319299      -23.4214982085
 C       -15.4631651679        5.5946801614      -22.8472781282
 C       -16.6768753250        3.4887047539      -22.6298571457
 C       -13.8020629220        8.7906413980      -16.4540678961
 C       -12.2606953447        7.0939706323      -17.5012873364
 C       -15.6236851719        7.5778799634      -10.3806923114
 C       -13.7751070438        6.2413279257       -9.2742507281
 C       -16.7328671188        0.6304423710      -13.2293430666
 C       -15.8921858158       -0.5012419682      -11.1801701585
 C       -10.3685379474        2.3936409382      -16.6249142616
 C       -10.0658919640       -0.0179004722      -16.0860954773
 C        -6.5363358983        3.5020895718      -10.1689706147
 C        -4.6293272273        2.2191329165      -11.0306933526
 C        -5.9857897899       -1.7810002511       -5.3712315370
 C        -3.9814532691       -0.3729014529       -4.9029083792
 C         2.5979051762       -3.0253828452       -5.5932534073
 C         0.9101941776       -3.0979539697       -7.5541846512
 C         5.3251661522       -7.6244366293       -2.9035191930
 C         6.7449927469       -5.6329140463       -3.7915470919
 C         9.4661110331      -12.7118135053       -4.2695404719
 C         9.6420357477      -11.8468915991       -1.7787623422
 C        15.3358051704       -7.3135929873       -2.5844212526
 C        14.2818135500       -5.4337203093       -3.7534542441
 C        11.7693058596       -8.8794448761       -8.0362159453
 C        12.9605638145       -7.4143319326       -9.8492991326
 H        11.5275704906       -5.0131062117       -9.9869002187
 H         9.7899626667       -5.0009641171       -9.4022519158
 H        10.3208939264       -6.2272727925      -10.4785755330
 H        14.9748353431       -6.1039533319       -8.4457641192
 H        15.1641187379       -7.8825052753       -8.1232516059
 H        15.4230232932       -5.7337615019       -6.0032626071
 H        16.5463642313       -6.9929882517       -6.5648085821
 H        13.6682423496       -9.6906783052       -2.9202859859
 H        12.9684144072       -9.5866622948       -4.4866447327
 H        11.1057081825       -9.0736147511       -1.8688365345
 H        11.9564214336      -10.6248331927       -2.1808945706
 H         7.3671683447      -11.4905654990       -5.1752394483
 H         8.6019525996      -10.2466005749       -5.5221468283
 H         5.7048271838       -9.6650442403       -4.8005148242
 H         6.4897781208       -9.3085394882       -6.3793201056
 H         3.6928246056       -5.2737199570       -4.4131240399
 H         3.1038478834       -6.8556045657       -4.5297488052
 H         2.7797739238       -6.6904558415       -7.0259769546
 H         3.7284695926       -5.0344813647       -7.0340184812
 H        -1.9460928464       -4.4929979711       -4.9505442140
 H        -1.1486545565       -4.3106273078       -6.6463503167
 H        -1.7830682370       -2.1037507356       -6.7212824897
 H        -1.7539976494       -1.8193063134       -5.0858116743
 H        -6.6235607050       -1.1818683719       -7.7116120832
 H        -5.4722843986       -2.2602676735       -8.6795788243
 H        -5.9866341578       -0.9502438431      -10.3399747649
 H        -4.4268770195       -0.3259335527       -9.8542086324
 H        -7.8643909734        3.0184428002      -12.6348131869
 H        -9.0175727082        2.2904743291      -11.5911131614
 H        -9.0588956549        0.2768746238      -13.0954729740
 H        -7.9672034609        0.9700952757      -14.2516408387
 H       -11.9991406184       -0.6714705243      -14.3985279637
 H       -12.8240567152       -0.7005074245      -16.0146937329
 H       -14.7634392321       -0.9040302123      -14.6423821801
 H       -14.5741428334        0.7040078669      -14.9366302083
 H       -14.9146515754        1.6527546005       -9.5153751963
 H       -16.5798650504        2.2581373179      -10.1531243288
 H       -13.9540648818        3.8528796637       -9.7759580996
 H       -15.2583890628        3.9835526717       -8.8490573464
 H       -13.3009787992        7.8602773414      -13.2217092012
 H       -15.0295241784        7.7962823426      -12.7593178546
 H       -15.5231198589        7.0803467932      -14.6485549159
 H       -15.0337434943        5.5616083003      -14.1485877660
 H       -14.1434789202        5.4081327564      -19.0580679155
 H       -14.3276993255        7.1507513872      -19.5099111614
 H       -16.3695169289        6.9169825564      -20.4156669693
 H       -16.9269115897        6.1132584177      -18.9541027940
 H       -17.8210625517        7.5177921210      -22.9912201488
 H       -19.1428865780        6.4461358481      -23.6453943738
 H       -17.5095224936        6.2463524925      -24.2948115039
 H       -15.9131709650        5.5096233724      -23.8633732907
 H       -14.4760708746        5.1542627759      -22.8765717411
 H       -15.4225376214        6.6564942843      -22.6334962094
 H       -16.4742725705        3.4098438055      -23.7035968957
 H       -17.6488975123        2.9607305695      -22.5073527995
 H       -15.9635304195        2.7357165466      -22.0801983273
 H       -14.5248619940        9.0102473172      -15.7121648697
 H       -14.0758237950        9.2355146657      -17.4436588440
 H       -12.9634194767        9.2987971360      -15.9322127857
 H       -12.2728285242        6.1054279366      -17.8396847613
 H       -11.4182068668        7.1999779022      -16.8021496520
 H       -11.9419579261        7.7206312960      -18.3428284907
 H       -15.8469777766        7.6855583484       -9.3064001885
 H       -16.5801558709        7.4381185811      -10.8451242774
 H       -15.0478330166        8.4196853504      -10.7073094269
 H       -13.0395333693        5.4239766565       -9.4026198053
 H       -14.3615030316        6.2438884300       -8.3880191245
 H       -13.1151043387        7.1417153241       -9.2213261923
 H       -17.4998486842        1.1696055885      -12.7140653612
 H       -17.2169534564       -0.2785639183      -13.4907457370
 H       -16.5397402082        1.1286324546      -14.2206274862
 H       -16.2085793383       -1.4027024497      -11.6977863629
 H       -16.7155338752       -0.1343104758      -10.5337788795
 H       -14.9884630794       -0.5988777103      -10.4978469694
 H       -10.4935190536        3.4569286763      -16.3471381667
 H       -11.0622818963        2.3146912803      -17.4226034258
 H        -9.2630971886        2.1779620971      -16.9558606143
 H        -8.9547587091        0.0062995186      -16.2588636434
 H       -10.5462571668       -0.4237565598      -17.0032849830
 H       -10.0776683645       -0.8117435480      -15.3767588176
 H        -6.3621683608        4.1085526985      -11.0998393090
 H        -5.9303495276        3.9225964438       -9.4382320133
 H        -7.6138133499        3.5846246617       -9.8520157574
 H        -4.4594583523        3.0444000437      -11.6910748284
 H        -4.3188965162        1.2215671999      -11.4933511925
 H        -4.0366390900        2.6659500965      -10.1889979657
 H        -6.2600541651       -2.7661280457       -5.7944001943
 H        -6.6109286863       -0.9377219662       -5.5935650530
 H        -6.0003073794       -2.0399079449       -4.2921215816
 H        -4.6851939435        0.5282463784       -4.7831938729
 H        -3.0113061591       -0.0099175125       -5.0721607975
 H        -3.9909308063       -0.7641119444       -3.8678283276
 H         2.4040931932       -1.9969836301       -5.4086067913
 H         3.3620097264       -3.0716513796       -6.2913338160
 H         2.9755692462       -3.4566961888       -4.6732314765
 H         1.7349688311       -3.1435485153       -8.2504975719
 H         0.5756271898       -2.0445506009       -7.2952532324
 H         0.2105208785       -3.8053999190       -8.0625396251
 H         6.0761662415       -8.1197350832       -2.3437195217
 H         4.4186610256       -8.2060931112       -3.1061857120
 H         5.0907184960       -6.8462162833       -2.0974327942
 H         7.6192035339       -5.4887380625       -4.4384666235
 H         6.8921161660       -5.4904838895       -2.7332815745
 H         6.0155339240       -4.9083536235       -4.0413767477
 H        10.2130032302      -13.4637828962       -4.2867942091
 H         9.4337282198      -12.3066117411       -5.2681373361
 H         8.4732605202      -13.1881834790       -3.9491747421
 H        10.5603348552      -12.4470097556       -1.6838286535
 H         8.6711715713      -12.3299320903       -1.5325212038
 H         9.7553557758      -10.9557636947       -1.1266119414
 H        15.9673823892       -6.4321027362       -2.4353028111
 H        15.9318149705       -8.2062465310       -2.6112467052
 H        14.6896760191       -7.2829522440       -1.7570270661
 H        13.7388453437       -5.3053833531       -2.8547123132
 H        13.6166930464       -5.0601005778       -4.5486573188
 H        15.2306937167       -4.9713340819       -3.8883324843
 H        12.0596442059       -9.1409549556       -6.9939286056
 H        12.3769512418       -9.5549763438       -8.6513184628
 H        10.6879451984       -9.2303090759       -8.1280390580
 H        13.5766150212       -8.3035214325       -9.9916528771
 H        13.5759163193       -6.4611549122       -9.7945884499
 H        12.3657333718       -7.3794363713      -10.8115006683
 Na       10.4381317596       -7.6697295749       -5.5049103279
 Na      -12.4443550533        3.8063913457      -13.8487032026
