232

 C        10.6179194455       -5.6770988710       -9.5619621217
 C        10.9385263743       -6.5531729813       -8.4477302168
 O        10.1556095810       -6.6132298307       -7.4952506897
 C        12.3807115915       -7.4148641473       -8.5592977024
 C        13.3324663917       -6.9961732603       -7.3419387648
 O        12.8489655078       -6.6810258543       -6.2379926807
 C        14.8305552647       -6.9196134745       -7.6741739446
 C        15.6842877097       -6.7610937079       -6.3622818065
 C        15.0885257986       -7.5973590262       -5.1115451604
 O        15.1827753707       -8.7820643429       -5.2147985410
 C        14.5159168079       -7.0276053960       -3.6586717301
 C        13.0826191873       -7.7357236195       -3.5418888854
 O        12.1254388245       -7.0404749674       -3.8003598950
 C        13.0313198267       -9.3270365555       -3.5377473721
 C        11.7005667746       -9.8345322008       -2.9088485517
 C        10.7050369691      -10.3808407996       -3.8589426861
 O        10.7714855954      -10.1248474877       -5.0336267090
 C         9.5154235779      -11.2629191899       -3.3445993378
 C         8.2161821927      -10.5283349588       -3.5027038943
 O         7.6620136153       -9.9030036025       -2.5891107482
 C         7.6354273394      -10.4853298387       -4.9560759972
 C         6.6802724774       -9.3685066239       -5.1903430953
 C         7.0777119324       -7.9660935002       -4.6059983731
 O         8.2939049122       -7.8160090351       -4.4971880430
 C         6.0389052236       -6.9978380439       -4.1000056664
 C         5.0924177255       -6.7513294276       -5.4392494400
 O         5.5593414447       -7.0158851270       -6.4671077447
 C         3.7652203483       -6.0065049497       -5.1660898094
 C         3.0968033153       -5.6779274544       -6.5059119563
 C         1.5607257379       -5.3086162448       -6.3036225481
 O         0.6513063152       -6.1203200720       -6.3445789162
 C         1.2946966394       -3.6824962873       -6.1458084979
 C         0.1403873545       -3.6206124499       -5.1213396416
 O         0.3503667865       -3.4199637568       -3.9367572972
 C        -1.3165534656       -3.8325572681       -5.6663349792
 C        -2.1489776552       -2.5575942285       -5.8175975093
 C        -3.6660325502       -2.7335990891       -6.0554521976
 O        -4.1807769892       -3.7924962219       -6.4143785688
 C        -4.5124543382       -1.4338745164       -5.8614037035
 C        -4.5503041228       -0.8785162178       -7.3226636880
 O        -3.5282989034       -0.2614772028       -7.6272427110
 C        -5.6678732743       -1.2400581440       -8.2823505816
 C        -5.6257642774       -0.4415199045       -9.6135364905
 C        -6.0513841110        1.0075767317       -9.3004356420
 O        -6.5802636503        1.3799827396       -8.2480963599
 C        -6.0583975563        2.0052733671      -10.6400116484
 C        -6.8963275331        1.3767498764      -11.7802751948
 O        -6.7059877156        0.2460229636      -12.1740028145
 C        -8.1812661326        1.9503231859      -12.3213694322
 C        -8.7177723552        1.1472336911      -13.5859709653
 C        -9.9295096673        1.7664597352      -14.1517962615
 O       -10.2901163913        2.8543756865      -13.7863678896
 C       -10.5793201938        1.1593453009      -15.5588591166
 C       -12.1154850614        1.1118797258      -15.3019155915
 O       -12.7503337173        2.1628541711      -15.3435695646
 C       -12.9038735609       -0.1594197674      -15.0325830612
 C       -14.3046709525       -0.0258755577      -14.4470080404
 C       -14.2679102826        0.0252637784      -12.9068403439
 O       -13.2635107822       -0.2366265084      -12.2336742804
 C       -15.5448189572        0.5502603103      -12.1783790526
 C       -15.1776234785        2.0465483168      -11.8132401070
 O       -14.7369951978        2.8442770780      -12.6111306382
 C       -15.4463039452        2.3934646013      -10.3227917820
 C       -15.1110142246        3.8214977879       -9.8588827116
 C       -15.6718239559        5.0103422627      -10.5680008059
 O       -16.6441050929        5.0514412255      -11.2668274064
 C       -14.6893317767        6.3342507406      -10.4845889715
 C       -13.8778102430        6.2065675423      -11.7816197303
 O       -13.0459064132        5.3096532563      -11.9238833949
 C       -14.1837012798        7.2171188694      -12.9442202823
 C       -14.7744726557        6.5240359758      -14.2745436120
 C       -13.6387264269        6.3329882660      -15.3459379319
 O       -12.7627000026        5.4923345040      -15.3493131480
 C       -13.6603132708        7.2748988925      -16.6298327003
 C       -14.7962015837        6.7169366224      -17.5392212496
 O       -15.8143725065        6.3661924707      -16.9946621755
 C       -14.7136397629        6.5072479817      -19.1284967749
 C       -16.1214749363        6.1883193521      -19.6243961238
 C       -16.1783461747        4.8606473492      -20.5838165500
 O       -15.8439603038        3.7831061722      -20.1720640720
 C       -16.6787062563        4.8525910562      -22.1706375325
 C       -17.9753765775        5.7234595266      -22.1864583896
 O       -18.6833971900        5.6949146026      -21.1956142317
 C       -18.1407750071        6.7381225243      -23.3097670367
 C       -15.4546624414        5.5871710297      -22.9530878577
 C       -16.7739311492        3.4374076546      -22.6448151706
 C       -13.7354753239        8.8808314191      -16.4487491644
 C       -12.3466891732        7.0827505926      -17.4310357968
 C       -15.5466478262        7.6617731480      -10.4369835361
 C       -13.7450682933        6.2632373414       -9.2602869934
 C       -16.8221887832        0.5931184476      -13.0164214565
 C       -15.8376144172       -0.4549287916      -11.0068875454
 C       -10.4347876105        2.3296201179      -16.6221580050
 C       -10.1423716865       -0.1326901872      -16.2015455222
 C        -6.5607640983        3.4388478786      -10.2505541550
 C        -4.5543228605        2.1625301089      -11.0535146899
 C        -5.8929372604       -1.8490129225       -5.4131166152
 C        -3.9591397033       -0.2828275475       -5.0014710106
 C         2.4888604716       -3.0111868477       -5.5677085612
 C         0.9048106221       -3.1264422831       -7.5764590695
 C         5.2540791906       -7.7259518773       -2.9726564090
 C         6.6133549221       -5.5811805175       -3.7692920364
 C         9.5738612370      -12.4911119962       -4.2640453814
 C         9.7499029722      -11.8313684319       -1.8415016175
 C        15.5654609768       -7.4160854102       -2.5837045157
 C        14.1196634307       -5.5386032384       -3.7239926835
 C        11.8342243057       -8.8478220016       -8.1436768343
 C        12.8648063216       -7.3752841436       -9.9559575493
 H        11.4296695191       -4.8801903002       -9.7384709915
 H         9.6502896714       -5.2098179932       -9.4185051974
 H        10.5184228605       -6.2345150201      -10.5354957531
 H        14.8957410334       -6.0649068881       -8.3178884121
 H        15.1540509890       -7.7968015210       -8.2182144691
 H        15.7782749237       -5.7171964599       -6.0628777567
 H        16.6088362284       -7.1962140233       -6.5548620837
 H        13.8383857762       -9.7737493632       -2.9286154137
 H        13.2626810527       -9.5290902592       -4.5594113623
 H        11.1624193206       -8.9394830661       -2.5133619876
 H        11.8198712044      -10.4989031250       -2.0634448204
 H         7.2184407601      -11.4133572986       -5.2012526752
 H         8.5615046934      -10.3103167686       -5.5433018473
 H         5.6663493107       -9.7097419418       -4.7871797094
 H         6.5588679307       -9.2245413430       -6.2485280846
 H         3.9369731677       -5.1020375509       -4.6031925248
 H         3.1006366318       -6.5078450843       -4.4201716000
 H         3.0320998708       -6.5706326129       -7.1237489284
 H         3.6865778182       -4.8558006903       -6.9221211482
 H        -1.8883097888       -4.3150737865       -4.9153161023
 H        -1.3257211215       -4.3708345919       -6.6075193162
 H        -1.6675637212       -1.7683929725       -6.4391640447
 H        -2.1365569192       -2.0421298174       -4.7915138511
 H        -6.6094225133       -0.9416158586       -7.7893331899
 H        -5.6558430644       -2.2726380882       -8.4620250764
 H        -6.3292625744       -0.8491463259      -10.3475482534
 H        -4.6364049818       -0.4207957651      -10.1186649032
 H        -8.1182870701        3.0386162631      -12.5132730210
 H        -8.9426815963        1.9111215133      -11.5054034276
 H        -8.8218223257        0.1361331484      -13.3105205250
 H        -7.9807216060        1.0587783328      -14.3910317470
 H       -12.2222443852       -0.7733315970      -14.4600983078
 H       -13.0448809255       -0.5253326705      -16.0942571665
 H       -14.8978980053       -0.8659651862      -14.6791435044
 H       -14.8480688018        0.7908828833      -14.9378539918
 H       -14.7131792258        1.8529411214       -9.7117324992
 H       -16.4213695000        1.9765061359      -10.0178488928
 H       -13.9529072056        3.8551072363       -9.7787288496
 H       -15.1760178219        3.8706149544       -8.7678243456
 H       -13.1272860564        7.4536997562      -13.2772167002
 H       -14.7736668144        8.1271268500      -12.7372578087
 H       -15.6873217712        6.9576573378      -14.6411137633
 H       -15.1500807899        5.5366782263      -13.9872750671
 H       -14.0934001903        5.6116390367      -19.2860146287
 H       -14.2252070274        7.4399645017      -19.5356693400
 H       -16.5978603227        7.0073777933      -20.1337323416
 H       -16.6860182070        5.9961186601      -18.6929159010
 H       -17.4066794343        7.4930822638      -23.1957317200
 H       -19.1825541472        7.0729578576      -23.2751081152
 H       -18.0711641379        6.1666686908      -24.2289093780
 H       -15.2150775053        5.2021688760      -23.9600032731
 H       -14.5467341742        5.5454354273      -22.3262572513
 H       -15.6102670903        6.6724319698      -22.9766399201
 H       -16.7976554861        3.2715687459      -23.7342199866
 H       -17.6691988460        2.8316404233      -22.2468360438
 H       -15.9249695077        2.8080561352      -22.2025952952
 H       -14.3227393465        9.0717892459      -15.5545838981
 H       -14.1862315245        9.3300081258      -17.2907022868
 H       -12.8453677564        9.3155694515      -16.1068483673
 H       -12.1756070212        6.0871380558      -17.7922047644
 H       -11.6040327225        7.3761662745      -16.7021632831
 H       -12.1277667626        7.7194045815      -18.2391665945
 H       -15.9319147274        7.5956805255       -9.3969735803
 H       -16.3993828942        7.5663837147      -11.0320884199
 H       -14.9302669754        8.5654174441      -10.5545359595
 H       -13.0129354040        5.4834664576       -9.3777578295
 H       -14.3322013627        6.1894105964       -8.3638668990
 H       -13.1566174547        7.2041312565       -9.2101851900
 H       -17.6077756320        0.8668503610      -12.4343497154
 H       -17.1770245828       -0.3719653447      -13.5148887269
 H       -16.7031050976        1.2754050424      -13.8703015014
 H       -16.0054079970       -1.4316677643      -11.5721688363
 H       -16.7609328040       -0.1776222654      -10.3935258903
 H       -15.0262025471       -0.4806292464      -10.3376259660
 H       -10.5134769192        3.3660811308      -16.1467616827
 H       -11.3193141838        2.3979756878      -17.2899056851
 H        -9.4726851093        2.2399769060      -17.1055220690
 H        -9.0927332033       -0.0357465442      -16.4494172332
 H       -10.6829797363       -0.3739871033      -17.0921319400
 H       -10.0895528395       -1.1284239530      -15.6117956764
 H        -6.2488702774        4.1373917710      -11.0472082506
 H        -6.0284999543        3.7658675674       -9.3928677674
 H        -7.5656794965        3.5009765689      -10.0947499349
 H        -4.4012842948        3.0460794172      -11.6505546234
 H        -4.3221444613        1.2145393830      -11.5987726846
 H        -3.8982843987        2.4906492415      -10.2133012620
 H        -6.2471323758       -2.6635420693       -6.0723444121
 H        -6.5970092463       -1.0023039475       -5.2972150499
 H        -5.7202308208       -2.4645890239       -4.4645546202
 H        -4.7328192671        0.5827309382       -4.8836459641
 H        -2.9514912172        0.1776542533       -5.2571551386
 H        -3.9023692032       -0.6190758542       -3.9727132310
 H         2.1934088454       -1.9953774676       -5.2378336956
 H         3.3651869628       -2.9008861876       -6.2451349052
 H         2.8194938964       -3.5026897888       -4.6861429228
 H         1.8564609018       -3.1412140860       -8.2460400386
 H         0.5071354538       -2.1256558434       -7.4129394886
 H         0.2506204834       -3.9227064150       -8.1196328146
 H         5.9302802958       -7.9806133214       -2.1945799177
 H         4.4908660073       -8.5429844439       -3.2333092387
 H         4.7620834586       -6.9435252566       -2.4756778335
 H         7.5006212586       -5.4515653640       -4.3335113252
 H         6.7386853151       -5.3599820822       -2.6695830293
 H         5.8494163380       -4.8568469342       -4.0546138250
 H        10.4082314109      -13.1375971163       -3.9996248920
 H         9.7538842923      -12.1523917759       -5.3267710289
 H         8.6773165187      -13.0797838891       -4.1070955250
 H        10.7346114306      -12.3931201813       -1.7814661113
 H         8.8490306271      -12.4390519271       -1.7793901264
 H         9.6517489029      -11.0868267336       -1.0218781175
 H        16.3666094457       -6.7537437251       -2.6338433279
 H        15.9452763171       -8.3857857601       -2.7104393866
 H        15.0821884730       -7.2305587250       -1.5999571444
 H        13.5094043444       -5.3585078581       -2.8456395320
 H        13.4583278613       -5.3934985719       -4.5192673362
 H        15.0094792485       -4.9246671835       -3.8967027949
 H        12.0307044500       -9.2034696157       -7.1349607294
 H        12.3819893611       -9.5642428587       -8.7800024906
 H        10.7456702237       -9.0165901329       -8.3006510138
 H        13.6791547944       -8.0999938093      -10.1069011360
 H        13.1615763535       -6.3479680322      -10.1161174519
 H        12.2041816539       -7.6638904916      -10.7206404528
 Na       10.5104295504       -7.6739333989       -5.4143134409
 Na      -12.4929552201        3.6820961834      -13.7891079935
