232

 C        10.5391862753       -5.6336060377       -9.4379089169
 C        10.9616948819       -6.7085503063       -8.4081236820
 O        10.2234394270       -6.7594376618       -7.4193910188
 C        12.3759014189       -7.4585844866       -8.5607128883
 C        13.2243061499       -7.0310452700       -7.2885814622
 O        12.6623039195       -6.6911173743       -6.2557173753
 C        14.7604731288       -7.0011815028       -7.4641960954
 C        15.4803670189       -6.5296475406       -6.2058829353
 C        15.2327238990       -7.6065455035       -5.1136642665
 O        15.4941319859       -8.8328845383       -5.1623742982
 C        14.6174556242       -7.1190631584       -3.7624800319
 C        13.2064553133       -7.8776977745       -3.5431990596
 O        12.1695194870       -7.1994357992       -3.4450918045
 C        13.1567115239       -9.4145215817       -3.5504474773
 C        11.8665896876       -9.8373194377       -3.0322634269
 C        10.8308614586      -10.3285262717       -3.9763200284
 O        10.9894841619      -10.0503895896       -5.1759824939
 C         9.6701262119      -11.2594130851       -3.4886505801
 C         8.3141290366      -10.5354967080       -3.6775202442
 O         7.9570501201       -9.8513907467       -2.7751561901
 C         7.6082517870      -10.5325325135       -5.0231160399
 C         6.6111597448       -9.3500002500       -5.1288733152
 C         7.1250122358       -8.0419987998       -4.6954292681
 O         8.2503065101       -7.7201085153       -4.3963213877
 C         5.9844375906       -6.9752783745       -4.2556097755
 C         5.1395705447       -6.5979620582       -5.5002320434
 O         5.5675125419       -6.9010175911       -6.6632250321
 C         3.7270435156       -5.9762281683       -5.3209606210
 C         3.1353910426       -5.6713764942       -6.6539394183
 C         1.6816667036       -5.2268107325       -6.4460906634
 O         0.7883627838       -6.0558009435       -6.5531779608
 C         1.2428214519       -3.7258325055       -6.1311846236
 C        -0.0364999682       -3.7272993684       -5.1055755282
 O         0.1795641839       -3.4845047152       -3.9476528217
 C        -1.4028758661       -3.9208136725       -5.5703352245
 C        -2.1980492704       -2.5500793309       -5.5524059814
 C        -3.6401265228       -2.6815705841       -5.9427859124
 O        -4.1010895619       -3.6688022496       -6.5155038647
 C        -4.5687937822       -1.2691708853       -5.8256032049
 C        -4.6709181700       -0.6289105970       -7.3272400997
 O        -3.9293102175        0.1969815943       -7.7564005673
 C        -5.8090366321       -1.1523755613       -8.2418680234
 C        -5.7924449549       -0.4169021094       -9.5769904823
 C        -6.2300668313        1.0773233463       -9.4429452821
 O        -6.6113315237        1.5701934543       -8.4052666928
 C        -6.1696436366        1.9155929610      -10.7346761741
 C        -6.8340590031        1.2257969242      -11.9375303310
 O        -6.3830214112        0.1482003387      -12.3416068411
 C        -8.1290161043        1.7186682765      -12.4575754105
 C        -8.7094436899        1.0090000213      -13.6567974990
 C        -9.9417684796        1.7435577378      -14.3007209035
 O       -10.4682785033        2.7230749501      -13.7687063542
 C       -10.6591828366        1.1287247160      -15.6147497823
 C       -12.2264779425        1.0729043341      -15.2278416785
 O       -12.8811449654        2.0591486385      -15.0939080536
 C       -13.0428003498       -0.1910593477      -15.0861436426
 C       -14.4081771243        0.0995230866      -14.4624698357
 C       -14.3913651482       -0.0057191183      -12.9516625086
 O       -13.4150531129       -0.4851601555      -12.4168609715
 C       -15.6327536310        0.5265842688      -12.0721653882
 C       -15.3125331285        2.0517399064      -11.6666410318
 O       -14.5921905161        2.6521440169      -12.4949746663
 C       -15.6530828902        2.5515569331      -10.2508016001
 C       -14.8782825949        3.8626743033       -9.8343544486
 C       -15.4491406792        5.0995072992      -10.5300495919
 O       -16.5207221658        4.9818700405      -11.0518115487
 C       -14.5121990064        6.4358167038      -10.5048358194
 C       -13.7602127889        6.2161698891      -11.8771252462
 O       -12.9266852285        5.3037078645      -11.8652333817
 C       -13.9787696935        7.1599147935      -13.0500942787
 C       -14.7212794309        6.4679141507      -14.2751176154
 C       -13.5915204430        6.1957915551      -15.4501425071
 O       -12.8895454468        5.1882941469      -15.4097261345
 C       -13.6363604344        7.1824874566      -16.7109391605
 C       -14.9009344697        6.6249089181      -17.5899858301
 O       -15.9029726699        6.3126704638      -17.0172785933
 C       -14.7775491038        6.6743710669      -19.0978378746
 C       -16.1179031132        6.2809404721      -19.8236634798
 C       -15.9892187707        4.8661482322      -20.6188155772
 O       -15.5881421900        3.7861397581      -20.1942013918
 C       -16.5034111844        5.1553828896      -22.1091404516
 C       -17.8479951711        5.9609928578      -22.0559072119
 O       -18.6731696917        5.6774311683      -21.2307278911
 C       -18.3687252085        6.9288272665      -23.1472820749
 C       -15.3823382076        5.5893985708      -23.1079106710
 C       -17.1289984318        3.7401625759      -22.6268657705
 C       -13.9640893353        8.6141364753      -16.2874211455
 C       -12.2520009525        7.0588687668      -17.3974942139
 C       -15.6032465346        7.6041344684      -10.4386688530
 C       -13.6022321999        6.4749237022       -9.2749254432
 C       -16.9786158468        0.5890167146      -12.7982468691
 C       -15.7018510455       -0.3267356898      -10.7356034026
 C       -10.4328368895        2.1547001449      -16.7077856423
 C       -10.0327021501       -0.3066240187      -15.9749839180
 C        -6.6543454517        3.4018619070      -10.3260903217
 C        -4.7192120900        1.9249407974      -11.1714930725
 C        -5.9586257963       -1.8172858638       -5.3319516939
 C        -4.0018173740       -0.3196508872       -4.7663978936
 C         2.3699645977       -2.8064495222       -5.5488701755
 C         0.8648730435       -3.2372529479       -7.6303197703
 C         4.9932924326       -7.5456360188       -3.1798596003
 C         6.6367994629       -5.7768616864       -3.6003593372
 C         9.6359945217      -12.5722541416       -4.3273790885
 C         9.7993733129      -11.5690505787       -1.9111106111
 C        15.6031479928       -7.4906000447       -2.6477272114
 C        14.5005840096       -5.5591798187       -3.6525494766
 C        12.0932156871       -8.9166725217       -8.3162264327
 C        13.0774049758       -7.2383392352       -9.9994244793
 H        11.2148408786       -4.8104263055       -9.3210420406
 H         9.5662964489       -5.2123766469       -9.2002416780
 H        10.5049019205       -5.8946083273      -10.4598462007
 H        15.1390182685       -6.3241152340       -8.2526012521
 H        15.0065296441       -8.0622269810       -7.7070377102
 H        15.0483885154       -5.5462259311       -5.9136543890
 H        16.5928274052       -6.3520181107       -6.4894963796
 H        13.9763280694       -9.7203716302       -2.9245853908
 H        13.3075250313       -9.9237389598       -4.5685810326
 H        11.4015018767       -9.0722666777       -2.4508611366
 H        11.9412832684      -10.6654307341       -2.3364156260
 H         6.9439982880      -11.4709649367       -4.9690528103
 H         8.3777852340      -10.5772013331       -5.7626405995
 H         5.7843422639       -9.5750765429       -4.5246067911
 H         6.2480478175       -9.2475304056       -6.1663219812
 H         3.7402896542       -5.1688515674       -4.5572713227
 H         3.0604752784       -6.6432508928       -4.7741533375
 H         3.2116508066       -6.5669455381       -7.2846712258
 H         3.6327087619       -4.7914358797       -7.0342483039
 H        -1.8949880605       -4.5332721705       -4.7237382968
 H        -1.5884199949       -4.4792953412       -6.4993430184
 H        -1.6604873940       -1.7862522889       -6.1459191967
 H        -2.2317328120       -2.1006013249       -4.5610133042
 H        -6.8468180159       -0.9741382341       -7.8794190100
 H        -5.7027121911       -2.2403844146       -8.4964774974
 H        -6.5592120739       -0.9067288651      -10.1903956506
 H        -4.8601380233       -0.5445845221      -10.1048381959
 H        -8.2033085960        2.7756454753      -12.6801745496
 H        -8.7274589629        1.5624258054      -11.5530505699
 H        -9.0768760060       -0.0590475007      -13.4444530527
 H        -7.8840785413        0.7322934764      -14.3180062841
 H       -12.4848288324       -0.8517198829      -14.3629863806
 H       -13.0745183542       -0.6136569771      -16.0846937582
 H       -15.2030610427       -0.6593493082      -14.8424934064
 H       -14.8854491120        1.0755574234      -14.7384070971
 H       -15.4725976410        1.7646249539       -9.4645473237
 H       -16.6831307703        2.7613975132      -10.2569318095
 H       -13.8515581291        3.8221299131       -9.8843202009
 H       -14.8309839966        3.9456725314       -8.7596916384
 H       -12.9947486298        7.3540057179      -13.4016109709
 H       -14.5536977397        8.0509399513      -12.8563806155
 H       -15.5818421871        7.0809881287      -14.6016089214
 H       -15.2886549941        5.6211721009      -13.8967330399
 H       -13.9950054319        5.9993593664      -19.4521287959
 H       -14.5001321754        7.6902695309      -19.2688648053
 H       -16.2619028735        7.0264223704      -20.6394319305
 H       -17.0128547312        6.2667690429      -19.1813311277
 H       -17.4227545035        7.2067314603      -23.6658895063
 H       -18.9169912554        7.7793371428      -22.7814438703
 H       -19.1047425103        6.3870468875      -23.7546387497
 H       -15.2990663512        4.8250009309      -23.9015346864
 H       -14.4068389225        5.6166207010      -22.5647170404
 H       -15.3840387984        6.6345380853      -23.4764888505
 H       -17.8391298661        3.7794671927      -23.3933605249
 H       -17.5934255729        3.2974480620      -21.8341678875
 H       -16.4254434828        2.9900556700      -22.8865419430
 H       -14.8574400896        8.7280047302      -15.7241513199
 H       -14.0737375781        9.2835244043      -17.1626214976
 H       -13.1832986900        8.9878551182      -15.6070506122
 H       -12.1957919690        5.9929383127      -17.5584509430
 H       -11.3564618718        7.4753730002      -16.9347858752
 H       -12.2268873082        7.3655329230      -18.4716359893
 H       -16.2643326569        7.3862320645       -9.6016952656
 H       -16.2128388171        7.5194882525      -11.3857608423
 H       -15.1033676599        8.5538077576      -10.2806179504
 H       -12.7928256819        5.7285879669       -9.4840585890
 H       -14.1626051182        5.9873182491       -8.4676726467
 H       -13.2343431822        7.4430867455       -8.9759127078
 H       -17.8481416876        0.4835996807      -12.1041740453
 H       -17.0824400649       -0.2747971268      -13.3831594344
 H       -17.1295719292        1.4318596866      -13.5160782730
 H       -15.9461888688       -1.3070784173      -11.0253688830
 H       -16.3756549665        0.1729159163      -10.0765865616
 H       -14.7102377945       -0.2988543259      -10.1672772246
 H       -10.8905250828        3.0596791199      -16.5125961903
 H       -10.8762525609        1.8425298528      -17.5988890286
 H        -9.3346822102        2.3330679502      -16.7216425166
 H        -8.9584072150       -0.2924002474      -16.1805584816
 H       -10.5538002954       -0.7158485789      -16.8532432105
 H       -10.1396354903       -1.0699117640      -15.3282608080
 H        -6.6619438962        4.1528796577      -11.1255495022
 H        -6.0118608704        3.6951233323       -9.5150455132
 H        -7.7307023078        3.2831023411       -9.9443026849
 H        -4.4831176591        2.6906992886      -11.8955251901
 H        -4.5541557961        0.9435384371      -11.5314477246
 H        -4.1055513986        2.1132146687      -10.3348360026
 H        -6.3829221397       -2.4599072879       -6.1212901509
 H        -6.6336618462       -0.9777780619       -5.2623744917
 H        -5.8595143289       -2.4054116597       -4.4388737064
 H        -4.6255116942        0.5184101273       -4.5334343555
 H        -3.1425601855        0.1114126641       -5.1391482498
 H        -3.7964978714       -0.7386285608       -3.7684545318
 H         2.0842657054       -1.7384440496       -5.5871276231
 H         3.3267205769       -2.9143389286       -6.0723188783
 H         2.5783214520       -3.0181375412       -4.4332208428
 H         1.7117556168       -3.2767376507       -8.2361771002
 H         0.5740889651       -2.1851588595       -7.4967476328
 H         0.0350697034       -3.7764097300       -8.0043445759
 H         5.4116505829       -7.5885302331       -2.1634377940
 H         4.7163640698       -8.5037079846       -3.4633479179
 H         4.0593078019       -6.8959749009       -3.0540260505
 H         7.4823181205       -5.3221126370       -4.2221748532
 H         7.1768034388       -6.1837525301       -2.7435918656
 H         5.9044889381       -5.0889605844       -3.1589533432
 H        10.5033881824      -13.2184766776       -4.2546933269
 H         9.5459798560      -12.1996987547       -5.3067085775
 H         8.7557505267      -13.1947224129       -4.0499914319
 H        10.7774562304      -11.9342757199       -1.8139818025
 H         9.0083484070      -12.2386145288       -1.6156944792
 H         9.6097996150      -10.6928721799       -1.3189912834
 H        16.6605881950       -7.2702965724       -3.0248382276
 H        15.6718220749       -8.5941294401       -2.4818544604
 H        15.3985103782       -6.9173495021       -1.7810705352
 H        14.0485794525       -5.3071698560       -2.6872650282
 H        13.8478307774       -5.0465051281       -4.4315013524
 H        15.5510871224       -5.2862071449       -3.6686898743
 H        11.6630829391       -9.0775200912       -7.3333426672
 H        13.0099875484       -9.4868318492       -8.2957908534
 H        11.3315522118       -9.2587659878       -8.9873543426
 H        14.0210395064       -7.6564336008       -9.9700444553
 H        12.9803146400       -6.2750007316      -10.4576677861
 H        12.6267369342       -7.9032261006      -10.7439424638
 Na       10.6605362332       -7.7421938545       -5.2270208303
 Na      -12.8021288355        3.8535241715      -13.4878608105
