232

 C        10.5375291367       -5.7209779327       -9.3095460727
 C        10.9164446577       -6.8337242693       -8.3737583591
 O        10.2672698039       -7.0848054037       -7.3997329485
 C        12.3105608815       -7.4865798504       -8.5209189880
 C        13.2465079698       -7.0874255205       -7.2770030767
 O        12.7412718944       -6.8471607311       -6.2209371358
 C        14.7381683121       -7.0223666152       -7.4684999098
 C        15.4006915343       -6.3761981225       -6.2225436239
 C        15.3697887882       -7.5740100017       -5.1077756039
 O        15.7650694372       -8.6661565425       -5.3011083611
 C        14.7356548694       -7.1525484312       -3.5983574005
 C        13.3778616946       -7.7530392240       -3.4299229022
 O        12.3543889122       -7.1029008217       -3.3550602997
 C        13.3603003332       -9.2901680230       -3.6257207131
 C        12.1365244351      -10.0904644275       -2.9668398618
 C        10.9218931189      -10.4834784915       -3.9595827556
 O        10.9943431897       -9.9976859001       -5.0639146819
 C         9.7982316003      -11.4279806133       -3.5133442528
 C         8.5095544185      -10.4631632656       -3.7706858630
 O         8.0179625947       -9.8009003463       -2.8978410330
 C         7.8509204060      -10.3273054643       -5.2017855202
 C         6.6904930481       -9.3067243242       -5.2038617831
 C         7.1079844294       -7.9846721338       -4.6005904225
 O         8.2469034347       -7.6366723636       -4.8401896487
 C         5.9406015382       -7.0014858411       -4.1761207051
 C         5.2648461232       -6.5509424476       -5.5656793800
 O         5.7845155625       -6.7895338058       -6.6075258326
 C         3.8032662411       -5.9739487076       -5.5109122884
 C         3.0833862276       -5.3836870109       -6.8236624777
 C         1.5522298705       -5.1621563010       -6.5801257132
 O         0.7578710374       -6.0376398708       -6.6383320813
 C         1.1039051207       -3.7047539440       -6.2527963772
 C        -0.0175597842       -3.7833404502       -5.1883975814
 O         0.2064904873       -3.6054816363       -3.9838245165
 C        -1.5189020278       -3.8584184915       -5.6627926939
 C        -2.2180425778       -2.5292054486       -5.3579426827
 C        -3.7053134116       -2.5118092448       -6.0132952163
 O        -4.0652817350       -3.4224530944       -6.6793868391
 C        -4.6428596729       -1.2641807431       -5.8057713461
 C        -4.8190749321       -0.5566683935       -7.1633078860
 O        -4.1818831691        0.4680925427       -7.4672141521
 C        -5.8898039063       -1.1381895496       -8.0439680064
 C        -5.9651827878       -0.5399288115       -9.4897142234
 C        -6.2938896660        0.9753121239       -9.5124052530
 O        -6.8051944647        1.5152541320       -8.5806309114
 C        -6.1113814148        1.7918858487      -10.8694048650
 C        -6.8200027316        1.1055184518      -12.1085034104
 O        -6.3853420085        0.1571176310      -12.6836713167
 C        -8.2037033082        1.7409646563      -12.4686508269
 C        -8.8258804177        1.0200058158      -13.7011135572
 C       -10.1650030275        1.7282809443      -14.1585044799
 O       -10.7072424471        2.6016217054      -13.5481038757
 C       -10.8785051807        0.9776054175      -15.4844181125
 C       -12.3884902955        1.0927266330      -15.2112419992
 O       -12.9369664313        2.1916160854      -15.0031560209
 C       -13.2040556734       -0.1767307082      -15.1111588964
 C       -14.5683690516        0.0263242321      -14.4446285437
 C       -14.4695646112       -0.1292810408      -12.8783980537
 O       -13.5570082889       -0.7193757379      -12.3614263395
 C       -15.5569042087        0.4131195831      -11.9594839173
 C       -15.0885328098        1.9249567883      -11.5634596403
 O       -14.4917262482        2.6532000893      -12.2641196278
 C       -15.6277923497        2.5756521020      -10.2731435280
 C       -14.7422689379        3.7900228899       -9.9483908032
 C       -15.3512199357        5.1538676455      -10.4933152784
 O       -16.5130920402        5.1357795277      -10.9209480281
 C       -14.4576560444        6.4988891933      -10.5946612702
 C       -13.6304213557        6.3142187009      -11.8389038649
 O       -12.7472781846        5.5011991468      -11.7794855816
 C       -13.8075111850        7.1490413627      -13.0780372640
 C       -14.5266157860        6.2888956984      -14.1400733124
 C       -13.6457898771        6.0371448538      -15.3450493361
 O       -12.8766390840        5.0938822182      -15.3874759235
 C       -13.7248943016        6.9601709793      -16.7110637419
 C       -14.9616520767        6.5218137498      -17.5723223559
 O       -16.0682947678        6.2814272016      -17.1231093555
 C       -14.7741034599        6.5705182216      -19.0846549914
 C       -16.0243123269        6.4516864483      -19.8756725849
 C       -15.9657478394        5.1185822499      -20.7072570213
 O       -15.2220777693        4.2549229833      -20.3710616431
 C       -16.7132599526        5.1096543445      -22.1961590154
 C       -17.9800100460        5.9886309626      -22.0083551267
 O       -18.6493328577        5.9277780770      -20.9755792901
 C       -18.2228641088        7.0488027964      -23.1036497150
 C       -15.5927326489        5.6917337496      -23.1362224239
 C       -17.1617361104        3.7215846868      -22.6622108285
 C       -14.1419210187        8.4378151399      -16.1664776620
 C       -12.3272496005        6.8983173844      -17.4103345751
 C       -15.5337209258        7.6899134654      -10.6338119865
 C       -13.4968997558        6.6649461694       -9.3243466571
 C       -16.9278420866        0.5501407321      -12.6537680626
 C       -15.6408331468       -0.5038285968      -10.7602435692
 C       -10.5030512102        1.8951146719      -16.7102951931
 C       -10.3402448086       -0.4556268978      -15.7260234371
 C        -6.7526863495        3.1983001688      -10.8159199963
 C        -4.6182730593        2.0436364666      -11.1357236239
 C        -6.0596165126       -1.8011651161       -5.2137619106
 C        -3.9599679781       -0.2577769274       -4.8381623271
 C         2.1898865213       -2.8159209928       -5.6080418146
 C         0.5767250341       -3.0092664044       -7.5458673060
 C         4.9495404696       -7.5345699311       -3.1318949237
 C         6.6325584551       -5.7070171137       -3.6073216810
 C         9.7745659538      -12.7745299717       -4.3282293863
 C         9.8306390065      -11.8399604593       -2.0129971425
 C        15.6625289898       -7.7645158809       -2.4465055395
 C        14.5807498221       -5.6279301731       -3.4352164053
 C        12.2115086503       -9.0723256285       -8.5015068799
 C        13.0000439604       -7.0405893994       -9.8980106830
 H        11.3017712392       -4.9593129155       -9.2510120391
 H         9.6255466391       -5.1626191560       -9.0385971800
 H        10.4359715719       -6.0623277744      -10.3537238745
 H        15.0057665446       -6.4021967461       -8.3371890306
 H        15.0718025363       -8.0660100048       -7.6191266302
 H        14.8766102891       -5.4739753626       -5.9522551397
 H        16.3881668600       -6.0689297202       -6.4440205394
 H        14.3643065311       -9.6180018993       -3.2405770455
 H        13.3587588438       -9.5683940079       -4.6367678636
 H        11.7006265704       -9.5082485429       -2.0939140633
 H        12.3878349981      -11.0558310453       -2.4835774669
 H         7.3772473969      -11.2246367344       -5.4515260267
 H         8.6574804665       -9.9769458564       -5.9323404341
 H         5.7521054856       -9.6717461585       -4.6671092109
 H         6.5199498438       -9.2400029479       -6.2877063927
 H         3.8031814368       -5.3472143392       -4.6316224059
 H         3.1282844857       -6.7209981470       -5.0610730714
 H         3.1832167226       -6.1883113594       -7.5951854725
 H         3.5890980273       -4.4357624994       -7.1519757300
 H        -2.0484767039       -4.6419635080       -5.1732076949
 H        -1.6467031614       -4.1469236432       -6.7400724930
 H        -1.5759309549       -1.7925393872       -5.8119469893
 H        -2.1678888223       -2.3011418442       -4.3012270046
 H        -6.8259800228       -0.8595856486       -7.5759368584
 H        -5.7644064994       -2.2353518527       -8.0192490970
 H        -6.7465338577       -0.9603622521      -10.1462045087
 H        -5.0170210803       -0.7633329418      -10.0234861746
 H        -8.1234244620        2.7948788247      -12.8312264115
 H        -8.9889002312        1.7240379422      -11.6825292839
 H        -9.0096553405       -0.0002980325      -13.5056339344
 H        -8.1081515575        0.8418549805      -14.5329345517
 H       -12.6544251441       -0.9247949247      -14.5871821263
 H       -13.3234356050       -0.5034600471      -16.1609922473
 H       -15.1640222750       -0.7151765998      -14.8444419911
 H       -15.0872864966        0.9245755116      -14.6249374492
 H       -15.5979540847        1.8593760600       -9.4746357096
 H       -16.7182962009        3.0583535935      -10.2961308592
 H       -13.6354317938        3.6899846921      -10.1936398743
 H       -14.5068607336        3.8625118516       -8.8655370162
 H       -12.8417086573        7.4605382489      -13.5179578385
 H       -14.5087738039        7.9593558092      -12.9206166714
 H       -15.4960015617        6.6409523706      -14.4702279722
 H       -14.7994917921        5.3880706097      -13.5653508047
 H       -14.1337339095        5.7321036460      -19.3625871236
 H       -14.2971719759        7.5394647702      -19.3680359929
 H       -16.0633261444        7.3105198799      -20.5248114107
 H       -16.9455343846        6.3137592836      -19.3058897558
 H       -17.6061560273        6.9868086813      -23.9874772786
 H       -18.0696058025        8.0527135890      -22.6178460625
 H       -19.3171811231        7.0860144006      -23.1824375474
 H       -15.8149145055        5.6464490119      -24.1980129168
 H       -14.5899390045        5.3156361388      -23.0275417849
 H       -15.4861966229        6.7244007911      -22.7966635740
 H       -17.5974852169        3.7954262844      -23.7431085215
 H       -17.9754572187        3.1875861573      -22.0794070380
 H       -16.3714357608        2.9837640107      -22.7335589669
 H       -15.2927406051        8.5445122937      -16.2689469763
 H       -13.8064289665        9.2390056074      -16.8430244025
 H       -13.7721866089        8.7598011833      -15.1618895999
 H       -12.0117202323        5.8928913477      -17.8168723274
 H       -11.5681828576        7.2518389780      -16.6927330570
 H       -12.2855646304        7.5125192972      -18.2910736776
 H       -15.9637161928        7.7576636343       -9.6454616741
 H       -16.2517183520        7.3769095544      -11.3516117188
 H       -15.0477604329        8.6268764824      -10.8960057498
 H       -12.8494915553        5.8076436472       -9.2244226439
 H       -14.0068382496        6.7499118242       -8.3425962302
 H       -12.9533581303        7.6062026094       -9.5406547721
 H       -17.6495677511        1.1490646615      -11.9985919028
 H       -17.4315588662       -0.4282974458      -12.8322271485
 H       -16.8839377142        1.1038798559      -13.5221616716
 H       -15.8003117055       -1.4727154237      -11.2765772164
 H       -16.3787985046       -0.0839148154      -10.0579964859
 H       -14.7147916265       -0.5683207428      -10.2772416785
 H       -11.3559799677        2.6451887942      -16.7443692678
 H       -10.5863954241        1.2463953960      -17.6802040044
 H        -9.6185151866        2.4549154080      -16.6260977617
 H        -9.2923892670       -0.4992177343      -15.9730681051
 H       -10.8814861609       -1.0047191976      -16.4804300968
 H       -10.4865574157       -1.1378717677      -14.8077897566
 H        -6.7029609240        3.5934549103      -11.8156236915
 H        -6.1339378151        3.8817100857      -10.1408791497
 H        -7.7847847603        3.1741918369      -10.5488143881
 H        -4.5132296059        2.6626121798      -12.1047353903
 H        -4.1205794135        1.0533106523      -11.3148849013
 H        -4.1332504437        2.4764974240      -10.1953885594
 H        -6.3588085691       -2.6737829647       -5.7430196757
 H        -6.8549813831       -1.1230316393       -5.5215363998
 H        -5.9905304027       -1.8646879092       -4.1230701760
 H        -4.4704735489        0.6710172248       -4.7402895931
 H        -2.9918485824        0.1404229885       -5.3203865817
 H        -3.6886147868       -0.5217883619       -3.8159827349
 H         1.9379063835       -1.7908569201       -5.6908742647
 H         3.1605821675       -2.8739790190       -6.0697780162
 H         2.3124002964       -3.0027974442       -4.6119993333
 H         1.5568920178       -2.9195590518       -8.1417838648
 H         0.2234796801       -1.9976150981       -7.4513098774
 H        -0.3116243529       -3.5596195143       -7.9062092953
 H         5.4999057424       -8.3937768557       -2.6497767107
 H         4.0372963306       -8.0614629897       -3.5609600417
 H         4.6940829271       -6.8082293845       -2.4195483431
 H         6.8312041039       -5.0565469458       -4.3995099838
 H         7.6436896161       -5.8530148526       -3.2301122955
 H         6.0054290281       -5.2208424976       -2.8511101525
 H        10.7260236231      -13.2428614804       -4.0307461176
 H         9.7265300270      -12.6672687838       -5.4442561772
 H         9.0386558353      -13.4591675463       -4.0102649938
 H        10.5926629490      -12.6429534142       -1.8894343160
 H         8.8405357337      -11.9737779145       -1.6224368367
 H        10.1121113889      -10.9015323134       -1.5570864803
 H        16.6194663631       -7.3281302937       -2.4257229311
 H        15.8790009450       -8.7975088419       -2.6352878754
 H        15.1154628227       -7.5957591294       -1.4722825486
 H        14.4944231627       -5.4001545825       -2.3435332005
 H        13.6598188381       -5.3658477313       -3.8760891250
 H        15.4959544602       -5.1097877809       -3.7608056595
 H        11.1693754821       -9.2530923180       -8.1976351181
 H        12.7769363555       -9.5358771391       -7.6661246411
 H        12.1779270631       -9.4780765972       -9.5202384510
 H        13.7030837966       -7.8246841390      -10.3801779613
 H        13.4091905916       -6.0061771944       -9.9363308985
 H        12.1825373738       -6.8820106906      -10.6215613735
 Na       10.5940011562       -7.6474415351       -5.1365735031
 Na      -12.7951706866        3.7847435387      -13.5015247052
