232

 C        10.4651390435       -5.9090260760       -8.9921598177
 C        10.9548242055       -7.1042784411       -8.2503647157
 O        10.1455475082       -7.6128547318       -7.4473364802
 C        12.4270746841       -7.5667282971       -8.5351227579
 C        13.2174174727       -7.2015425762       -7.1805741841
 O        12.7831315574       -7.5262204339       -6.0764202325
 C        14.6642551567       -6.5889511487       -7.2411945945
 C        15.1079600423       -6.1510042738       -5.7954796435
 C        15.4364139787       -7.3055309282       -4.8945574122
 O        15.9832719046       -8.3067517491       -5.3532014296
 C        14.8747990002       -7.3098034734       -3.4188271353
 C        13.4674004892       -8.0890896908       -3.4069907066
 O        12.3334375392       -7.5363460444       -3.4042964745
 C        13.6375658260       -9.6000537755       -3.5134017036
 C        12.4162020849      -10.3697452650       -3.0513423099
 C        11.3054976225      -10.5041475397       -4.0303055869
 O        11.3031420827      -10.0144344033       -5.1378961531
 C        10.0713167063      -11.2940144131       -3.6627475311
 C         8.7134696217      -10.3416717128       -3.8072884195
 O         8.0558844147       -9.9316106673       -2.8654314603
 C         8.2394516898      -10.0887535442       -5.2497458212
 C         7.2526781023       -8.9904659882       -5.6151542572
 C         7.2831999728       -7.5480221313       -4.9669668569
 O         8.3915612662       -7.0993336111       -4.8401856586
 C         6.0704988747       -6.7218169737       -4.4530515103
 C         5.1104097118       -6.4067033011       -5.7320180046
 O         5.4896175102       -6.4755979740       -6.9233652043
 C         3.6821453159       -6.1245337126       -5.4607145380
 C         3.0788944475       -5.1853927023       -6.5519201282
 C         1.6359716166       -4.8849244845       -6.6479831200
 O         0.8759387524       -5.8109030448       -7.0035404443
 C         0.9561108320       -3.4895450017       -6.3676191797
 C        -0.3181582611       -3.8381677413       -5.3491445077
 O        -0.0181509156       -4.0851913572       -4.2186474469
 C        -1.7325466479       -3.6165737019       -5.7813177474
 C        -2.3838203773       -2.2752637410       -5.4817637593
 C        -3.6661316922       -2.1261490667       -6.1614954485
 O        -3.9464434263       -2.9579849880       -7.0377621604
 C        -4.6312131204       -1.0619486475       -5.7208617140
 C        -5.0277968783       -0.2581634057       -7.0478106345
 O        -4.5317809245        0.8161873079       -7.1351717701
 C        -6.0285430796       -0.9218501351       -7.9560858382
 C        -5.8047250110       -0.4855941212       -9.4310932492
 C        -6.5885001108        0.8227282292       -9.7924786245
 O        -7.7554600700        1.1065362121       -9.4553567638
 C        -5.9718182785        1.6295267072      -10.9440544698
 C        -6.9370273183        1.1809251237      -12.2310625807
 O        -6.4717360061        0.2561794330      -12.9065914642
 C        -8.4068155338        1.7241295101      -12.3846117828
 C        -9.0826643634        0.7760383098      -13.3821345549
 C       -10.5097762195        1.2405663755      -13.8024166701
 O       -11.0948492615        2.0260651307      -13.0629718541
 C       -11.2361363176        0.6457268513      -15.2116675487
 C       -12.7661665243        0.8279785181      -15.0696552057
 O       -13.2658112825        1.9255946635      -14.9233295626
 C       -13.7578988550       -0.3769077780      -15.1511498182
 C       -15.0262687424       -0.1916832600      -14.3235281146
 C       -14.7593788289       -0.2434424623      -12.7883242239
 O       -13.8486887691       -0.9233981609      -12.3127376120
 C       -15.5571609459        0.6143086304      -11.6804797779
 C       -14.8826024907        1.9243243846      -11.3828567059
 O       -14.0790422748        2.3783970549      -12.2379671011
 C       -15.2627130432        2.6678245729      -10.1479923378
 C       -14.4504272789        3.9068335904       -9.9692881263
 C       -15.1871122438        5.0619811999      -10.4145570415
 O       -16.3407953249        5.0597986687      -10.7760107903
 C       -14.3713473203        6.4896689945      -10.5034204888
 C       -13.5047494390        6.2897164416      -11.8604543474
 O       -12.7366709976        5.3458332968      -11.8629031061
 C       -13.6735112148        7.0128279270      -13.1248295763
 C       -14.4334700980        6.0667571681      -14.0941009499
 C       -13.5832235276        5.9446583949      -15.3084414319
 O       -12.8284126555        5.0217102655      -15.5401129219
 C       -13.7084497114        6.9518213076      -16.5716393292
 C       -14.8914670993        6.4555586360      -17.4494277789
 O       -15.9523787883        6.1356765807      -16.9621852171
 C       -14.7218500552        6.5525626681      -18.9797725790
 C       -16.0008060270        6.3742520445      -19.7844102793
 C       -15.7855794233        5.4461473630      -21.1436900402
 O       -14.7461315662        4.7841590428      -21.2130146262
 C       -16.7721408230        5.4641803587      -22.3801781179
 C       -18.0764459910        6.3657099156      -21.9644642531
 O       -18.5366553449        6.3203262422      -20.8461166717
 C       -18.6829519708        7.2829278869      -22.9877796563
 C       -15.9476642704        5.7556574727      -23.6601689688
 C       -17.5650181073        4.0052206688      -22.5073570715
 C       -14.1722553835        8.3203093991      -15.9608645957
 C       -12.2599569415        6.9617466036      -17.2206322361
 C       -15.3724118277        7.7031367890      -10.5934191964
 C       -13.4467782733        6.6719221902       -9.3384141183
 C       -16.9830212578        0.9026838258      -12.1161584603
 C       -15.4056377851       -0.2499585167      -10.3373010174
 C       -10.8322219222        1.5876773485      -16.3358016206
 C       -10.8546310532       -0.8896436790      -15.5719931114
 C        -6.2990812608        3.1283641730      -10.8229514582
 C        -4.4694224135        1.4298486194      -11.1181098237
 C        -5.9044556760       -1.6489713486       -5.1148814702
 C        -3.9765149353       -0.1038463633       -4.8179435570
 C         1.8222705432       -2.4731018881       -5.6302791266
 C         0.5990161665       -2.9036133322       -7.7168422406
 C         5.2003544333       -7.6715490979       -3.4989995697
 C         6.5143258169       -5.4465756304       -3.7799342940
 C         9.9440360028      -12.4443796678       -4.6647547095
 C        10.2928710350      -11.9090343573       -2.2330786061
 C        15.8853581274       -8.0530945140       -2.4868162734
 C        14.6317312973       -5.8645835389       -2.9983896935
 C        12.4279589462       -9.0693732438       -8.6412050395
 C        12.9273785695       -6.8870556836       -9.8542651626
 H        11.1264144740       -5.0107063723       -8.9856918913
 H         9.5724377020       -5.5804204998       -8.4733939720
 H        10.1979399380       -6.1653777596      -10.0145193599
 H        14.7130284177       -5.7149084340       -7.9600608545
 H        15.2971725565       -7.3772771954       -7.6479886663
 H        14.4205652978       -5.4996170019       -5.3895585904
 H        16.0316608160       -5.5617364489       -5.7725656200
 H        14.4512142632      -10.0364560041       -2.9653299183
 H        13.9369453888       -9.7643463771       -4.5487970219
 H        11.9445357070      -10.0701628256       -2.1128913080
 H        12.8690925006      -11.3886540421       -2.7863298018
 H         7.8078495357      -11.0377299324       -5.5732954230
 H         9.1890269772       -9.9182782661       -5.7575431647
 H         6.2682028203       -9.4676778725       -5.5316659086
 H         7.4598636532       -8.7804822543       -6.7408067294
 H         3.5642398619       -5.6053991874       -4.4679251616
 H         3.1168327054       -7.0554812648       -5.3724250988
 H         3.3824576839       -5.5826144076       -7.5533159002
 H         3.6898162738       -4.2989184871       -6.5822723426
 H        -2.2984023658       -4.4550732101       -5.4298152920
 H        -1.8109152671       -3.8126387027       -6.8057827392
 H        -1.6943691221       -1.4258581178       -5.6170809603
 H        -2.6875797157       -2.2382366781       -4.4475315034
 H        -7.0083456630       -0.6729805071       -7.6937067396
 H        -5.9875318133       -2.0260514724       -7.9074998676
 H        -6.2694220349       -1.3585371804      -10.0074437215
 H        -4.7946074471       -0.4873227633       -9.7677264253
 H        -8.5693363143        2.7554158565      -12.8581684687
 H        -8.8407840172        1.6824889809      -11.3917229969
 H        -9.2381665967       -0.2489094256      -13.0076376796
 H        -8.3574108791        0.6343361076      -14.1536428438
 H       -13.1233540953       -1.1988112423      -14.7447967669
 H       -13.8887188078       -0.6640231055      -16.1559825330
 H       -15.7199180410       -0.9941694263      -14.4424774035
 H       -15.4881040409        0.6977083211      -14.5088132330
 H       -15.1555824213        2.1144893144       -9.2054488409
 H       -16.2576725374        3.0406509637      -10.3807227476
 H       -13.5217147453        3.8640112707      -10.6178915035
 H       -13.9051922327        4.0708828088       -8.9270454805
 H       -12.7501216487        7.2898753905      -13.6827306160
 H       -14.1639151363        8.0242440051      -13.0874013069
 H       -15.3938129035        6.5493319350      -14.3342394711
 H       -14.5025585852        5.0733804365      -13.6703994132
 H       -14.0749069001        5.7103059439      -19.1645449707
 H       -14.1199473735        7.4741912365      -19.2169491762
 H       -16.3587335756        7.3420290064      -20.0800233142
 H       -16.6173774497        5.9243564923      -19.0120246117
 H       -19.6872649690        6.8458335336      -23.3039317438
 H       -18.0222506828        7.3296244582      -23.8671118864
 H       -18.9190499927        8.2188384257      -22.4715921374
 H       -16.1494461976        5.2064823684      -24.5384920284
 H       -14.8861408148        5.6489948161      -23.4809459679
 H       -16.1127240187        6.7574569704      -24.0144225732
 H       -18.6264212500        4.0161143565      -22.7300187306
 H       -17.5120549717        3.6119119423      -21.4577318834
 H       -17.0770370503        3.1418829843      -23.1616955095
 H       -15.2154355711        8.2071750682      -15.6525811918
 H       -14.1734015725        9.1059351085      -16.8051929894
 H       -13.4377649323        8.7865420736      -15.2371626079
 H       -11.9229711486        5.9376271980      -17.3520323815
 H       -11.5257254026        7.3169897290      -16.5073863499
 H       -12.1454020125        7.5198697088      -18.1973083574
 H       -15.7379002651        7.7674835284       -9.6082324207
 H       -16.1481674072        7.4946708579      -11.3639094162
 H       -14.8437871903        8.5987789650      -10.8370943754
 H       -12.4434037936        6.1528341109       -9.4301797760
 H       -13.8201451933        6.3216450510       -8.3337021796
 H       -13.2395827468        7.7296967907       -9.2328780076
 H       -17.5677874661        1.2476211806      -11.3011670197
 H       -17.4463024962        0.0470375916      -12.5650586509
 H       -17.0152792506        1.8194448545      -12.8680361345
 H       -15.8435825229       -1.1895460282      -10.5556161151
 H       -15.9171551364        0.1715479834       -9.4855892758
 H       -14.2631969052       -0.3542836162      -10.3350647711
 H       -11.1703723533        2.5671374938      -16.0055240614
 H       -11.2187536875        1.1908552710      -17.2361909413
 H        -9.6932089844        1.5940562436      -16.5921730822
 H        -9.7899748847       -1.0443587751      -15.8996926339
 H       -11.3699857414       -1.0791269334      -16.5636898750
 H       -11.1041571966       -1.5994113841      -14.8649175908
 H        -6.3096562259        3.6356975121      -11.8104276512
 H        -5.6268758271        3.5606853236      -10.1643966831
 H        -7.3239637371        3.1551839088      -10.3361402536
 H        -4.1884695946        2.1802971293      -11.8682391316
 H        -4.1022571697        0.3951689484      -11.4217627158
 H        -4.0254886329        1.5439896217      -10.0835457453
 H        -6.4656304310       -2.3126581342       -5.8119224397
 H        -6.4270021246       -0.7943193951       -4.7181828550
 H        -5.6836591937       -2.1153916466       -4.2023424955
 H        -4.7193113337        0.7174579556       -4.5273606444
 H        -3.0970613723        0.3593821740       -5.2019160482
 H        -3.4961040934       -0.5050206306       -3.8888269209
 H         1.3004724380       -1.5721903415       -5.5854773015
 H         2.7971126687       -2.2411152507       -5.9014737784
 H         1.9098878361       -2.7918510322       -4.5842756824
 H         1.5011832516       -2.9399699038       -8.3404741837
 H         0.2440005699       -1.7856146373       -7.6221471362
 H        -0.2482964141       -3.4801556599       -8.1676060440
 H         5.8095477174       -7.9217785439       -2.6097784726
 H         4.9411669873       -8.5669698813       -3.9997177870
 H         4.2152639048       -7.1145573133       -3.3017309856
 H         7.4473910583       -4.9236762429       -4.1511612995
 H         6.7300767644       -5.6566978746       -2.7732973998
 H         5.7369339017       -4.6956005624       -3.7688125249
 H        10.8278077805      -13.0848130794       -4.5449019107
 H         9.9451187944      -12.1493757943       -5.6733605322
 H         9.0131462136      -13.0243885321       -4.5259229940
 H        11.0396384713      -12.6570712621       -2.2450227768
 H         9.4343240625      -12.5724274844       -2.1695444591
 H        10.2883395029      -11.0989049001       -1.5085050575
 H        16.8005597983       -7.4105219726       -2.3484333830
 H        16.1808308647       -9.0322241028       -2.9237618075
 H        15.5105234983       -8.2909647333       -1.5358331175
 H        14.4187568547       -5.8722944480       -1.9450277180
 H        13.8320050934       -5.2768942136       -3.5469374903
 H        15.5775139191       -5.3309723337       -3.0286476567
 H        11.6449596998       -9.5173237464       -7.9672316533
 H        13.4496560938       -9.4487497671       -8.3261478939
 H        12.3708961286       -9.3498136402       -9.7134457162
 H        13.7448430147       -7.5340820198      -10.1286736639
 H        13.5039682975       -5.9481526163       -9.8479515661
 H        12.1599599651       -7.1224842831      -10.6509428008
 Na       10.7511427174       -7.7914404497       -5.1430250954
 Na      -12.5809930083        3.6596472824      -13.5732491156
