232

 C        10.4452756467       -5.9238605474       -8.9613295698
 C        11.0241431209       -7.0860685797       -8.2727625790
 O        10.3315866496       -7.7442062760       -7.5302431091
 C        12.4785296897       -7.5780011770       -8.4997801001
 C        13.3435516699       -7.1862258428       -7.2023200138
 O        12.8529863781       -7.5335036953       -6.1468520308
 C        14.6283676334       -6.3981841469       -7.2559348277
 C        14.9905408125       -5.9430403468       -5.8522904328
 C        15.3180268371       -7.1770279905       -4.8803857489
 O        15.8802993155       -8.1767570413       -5.3087617830
 C        14.9054341362       -7.1781696113       -3.4200062466
 C        13.6268737677       -8.2739574873       -3.3263422704
 O        12.5632717676       -7.7407817412       -3.2430878052
 C        13.7235400693       -9.7451233675       -3.5313280449
 C        12.4742878747      -10.5541001335       -3.0526218336
 C        11.2792274079      -10.5865997585       -4.0749550521
 O        11.5437131804      -10.2554231483       -5.2367945967
 C         9.9431744108      -11.3190825047       -3.8204947965
 C         8.7469777388      -10.3403462467       -4.0615684181
 O         8.1752409162       -9.8883862385       -3.1236885126
 C         8.4457879318       -9.8605254541       -5.4379672576
 C         7.2909389979       -8.8602008087       -5.4452744167
 C         7.4539104385       -7.4972810252       -4.9093759675
 O         8.5087189747       -6.9395163009       -4.5522261692
 C         6.0665609420       -6.8493166097       -4.4891218185
 C         5.2162779771       -6.4904205438       -5.8015028020
 O         5.7812879895       -6.6094381670       -6.8792168204
 C         3.8065023297       -6.0503841320       -5.6585385118
 C         3.1438320641       -4.9304258106       -6.6690859961
 C         1.6184525667       -4.7802142247       -6.6912264323
 O         1.0372483619       -5.7686177740       -7.0300991240
 C         0.9358388831       -3.4741518339       -6.3170450691
 C        -0.3034679636       -3.8359077387       -5.3996883858
 O        -0.0751811758       -4.1465077389       -4.2388535084
 C        -1.7847584607       -3.7659110853       -5.9961386723
 C        -2.3020507346       -2.3382754279       -5.5887218668
 C        -3.7113623291       -1.9614875233       -6.2784625091
 O        -4.1518243390       -2.6957661740       -7.0942429782
 C        -4.6500502847       -0.8559570735       -5.6921010430
 C        -5.1573777716       -0.0326076472       -6.9896413269
 O        -4.6703589379        1.0653808143       -7.2490266766
 C        -6.1303875355       -0.7804152339       -7.9388799197
 C        -5.9823963921       -0.5585670326       -9.4526823044
 C        -6.7662100245        0.6561891227       -9.9488286416
 O        -7.8991848422        0.8351129399       -9.6040756438
 C        -6.1419743120        1.5119754542      -11.1602224731
 C        -6.8986307489        1.0111638683      -12.4790666665
 O        -6.4155137140        0.1247856587      -13.1272430909
 C        -8.4106397310        1.3855567855      -12.4975480474
 C        -9.2638191519        0.4351693084      -13.3351901719
 C       -10.5758914916        1.1179768768      -13.6401501517
 O       -11.1653491483        1.9233614279      -12.9699713370
 C       -11.2726156663        0.5941116471      -14.9545174204
 C       -12.8364542136        0.6862839635      -14.8791111681
 O       -13.3898084921        1.7907418123      -14.6896020529
 C       -13.8538046687       -0.4649144326      -14.9451764157
 C       -15.1028688695       -0.0534981427      -14.1815152132
 C       -14.7395708996       -0.3255993476      -12.6574834375
 O       -13.8206825090       -1.0556119812      -12.4210783189
 C       -15.5137252151        0.4871027511      -11.5349244848
 C       -14.8251521747        1.9088604867      -11.2555265478
 O       -14.1266849119        2.3807373044      -12.0781784886
 C       -15.1990194239        2.5366181901       -9.8704516954
 C       -14.3888487931        3.9104741752       -9.5689760084
 C       -15.0248397385        5.1650900417      -10.3161119213
 O       -16.1785119125        5.1002677197      -10.7828622191
 C       -14.2219546600        6.4851583589      -10.4903467614
 C       -13.4924790976        6.2908458801      -11.7959513648
 O       -12.5916295078        5.4578465594      -11.8626782885
 C       -13.8961463455        7.0751544356      -13.0613181573
 C       -14.4135435566        6.1527889882      -14.2382724100
 C       -13.4807112026        5.9755910666      -15.4765332417
 O       -12.7451405731        4.9794832831      -15.5591172216
 C       -13.5866618902        6.9960493273      -16.6706630248
 C       -14.8261001236        6.4644501298      -17.5615382192
 O       -15.8266174940        6.0766673410      -16.9820025347
 C       -14.6423452915        6.3795463348      -19.0549589147
 C       -16.0454330672        6.1168383228      -19.7700100294
 C       -15.7148750804        5.5375773894      -21.2058161453
 O       -14.6538721181        5.0813652053      -21.5621044074
 C       -16.9407406229        5.5059799424      -22.2709232280
 C       -18.1561718195        6.5240011953      -21.9147926957
 O       -18.5539146843        6.6790820129      -20.7853711844
 C       -18.7765555843        7.3338432728      -23.0739778038
 C       -16.3604876617        5.9901692889      -23.7366462930
 C       -17.3037825022        4.0017978318      -22.2832719397
 C       -14.0327482916        8.4026887232      -16.1749212356
 C       -12.2981246932        7.1964981130      -17.4557069949
 C       -15.3161382836        7.6043526222      -10.5356832347
 C       -13.2509622940        6.7202277756       -9.3669340288
 C       -17.0502545737        0.7950254995      -11.9761947886
 C       -15.6658549229       -0.4685461100      -10.3695980401
 C       -10.7512565515        1.5707354964      -16.1413692295
 C       -10.7615745084       -0.8448544297      -15.1984302157
 C        -6.4626393722        3.0769881214      -10.7667526016
 C        -4.6028202321        1.4358305704      -11.4309409070
 C        -5.8320511424       -1.6911888924       -5.0324079207
 C        -4.0146811400        0.0234022230       -4.6091998099
 C         1.8035525431       -2.4601167508       -5.5174217264
 C         0.4503239848       -2.8892449531       -7.7115570342
 C         5.3917202758       -7.7154369956       -3.4147065230
 C         6.3070572799       -5.3546303304       -3.9052485310
 C         9.8496391996      -12.5691028889       -4.7735686756
 C         9.6637751618      -11.8303680214       -2.3605987019
 C        16.0921038949       -7.8045321479       -2.7077590611
 C        14.6120160474       -5.8499921675       -2.6978825335
 C        12.5161118176       -9.1565743608       -8.6207398551
 C        13.1529447062       -6.9126086944       -9.6998594848
 H        10.9164482346       -4.9877132347       -8.7225551170
 H         9.3777252781       -5.8351162858       -8.5591902883
 H        10.4443589768       -6.0116093117      -10.0875096050
 H        14.5533250336       -5.5384838396       -7.8562696592
 H        15.3569030461       -7.0371446158       -7.7533984091
 H        14.1135019095       -5.3395087337       -5.3914859422
 H        15.8118443152       -5.2019614520       -5.9843380772
 H        14.6077382242      -10.1044020840       -2.9425519994
 H        13.9829467736      -10.0578803056       -4.5437009845
 H        12.0362042880      -10.2048724516       -2.1102626235
 H        12.8444800256      -11.5120344881       -2.8492455628
 H         8.0639519867      -10.7356187175       -5.9952892413
 H         9.3746963715       -9.5416701496       -5.9759955563
 H         6.4222504011       -9.3032792554       -4.9345372112
 H         6.9758237681       -8.7371069241       -6.4391708157
 H         3.6171542841       -5.6951069605       -4.6687465014
 H         3.1627578385       -6.9364997365       -5.8463868108
 H         3.4182843847       -5.1876134139       -7.6595096449
 H         3.6952913849       -4.0016150390       -6.5536075099
 H        -2.3480973990       -4.6177933501       -5.5904057280
 H        -1.8949409323       -3.8763467955       -7.1365495804
 H        -1.5881006326       -1.5370859516       -5.9009928972
 H        -2.3789267186       -2.2245746734       -4.4622493226
 H        -7.1822038063       -0.4669141138       -7.6884985012
 H        -6.1672197228       -1.8545239597       -7.7919487992
 H        -6.3103893194       -1.4557655238       -9.9085324021
 H        -4.8994829849       -0.4676034726       -9.7637763464
 H        -8.5289184470        2.4032268963      -12.7642067131
 H        -8.8242622612        1.2700150663      -11.4835216713
 H        -9.2901986203       -0.4995520826      -12.7681086819
 H        -8.7175885014        0.2224867899      -14.2943192905
 H       -13.4311486600       -1.3928073388      -14.5949785832
 H       -14.0071494150       -0.7105676181      -16.0497578149
 H       -15.9645460958       -0.7200151464      -14.4686809860
 H       -15.3876149526        1.0728045366      -14.2177032612
 H       -14.8802172176        1.9457365715       -9.0822914036
 H       -16.2699867260        2.8307711630       -9.8410802793
 H       -13.3196299609        3.8730228021       -9.7454008228
 H       -14.4869915411        3.9955028895       -8.5454349825
 H       -13.0561925740        7.6972747742      -13.3634391622
 H       -14.6050847161        7.8576177008      -12.8588423398
 H       -15.2985497931        6.6522374313      -14.5984062456
 H       -14.6226725833        5.1886035824      -13.7288851692
 H       -14.0160625123        5.4547286526      -19.2864127540
 H       -14.0730774232        7.1911651271      -19.4551721794
 H       -16.7133176201        6.9964727922      -19.7225451749
 H       -16.4868954724        5.2387087081      -19.2764327463
 H       -19.7830387582        7.0260474118      -23.1660364017
 H       -18.2175788422        7.2812016592      -23.9826409547
 H       -18.9039755660        8.3217805499      -22.6680598835
 H       -16.9627441899        5.9400453028      -24.6504158641
 H       -15.4662010610        5.4109391902      -23.9881791446
 H       -16.0746203835        7.0629169235      -23.7522550599
 H       -18.3084963340        3.8143135289      -22.7923703103
 H       -17.4352604023        3.5584847742      -21.3042222546
 H       -16.5901261120        3.4172074701      -22.7530546559
 H       -15.1300029575        8.3439453889      -16.0888510115
 H       -13.7004058243        9.2274771328      -16.7470546681
 H       -13.6829310909        8.5346084012      -15.1652696717
 H       -11.9668422735        6.2055214680      -17.8528827613
 H       -11.4744387989        7.5899351814      -16.8515439139
 H       -12.4564314175        7.8873889128      -18.2274559977
 H       -15.6544093547        7.7378440975       -9.5061032255
 H       -16.1334205152        7.3452338223      -11.1840143359
 H       -14.7786445918        8.5061840095      -10.8696115682
 H       -12.4889563305        5.9734274898       -9.2583058579
 H       -13.7772509680        6.8703021223       -8.4322065977
 H       -12.6487564238        7.6469854938       -9.5161113775
 H       -17.5682762841        1.4447240476      -11.1759617530
 H       -17.5452022767       -0.1858500526      -11.9938790347
 H       -17.1909893952        1.1944743801      -12.8933820646
 H       -15.7500836166       -1.4947974092      -10.7910258318
 H       -16.6817701165       -0.3430096856       -9.9919046786
 H       -14.8286412070       -0.3527405482       -9.7700393208
 H       -11.3831379750        2.4560930162      -16.0326622365
 H       -10.7810223436        1.0089221311      -17.1244872304
 H        -9.7583617587        1.8257075089      -16.0612446630
 H        -9.7245650314       -0.9142792256      -15.5046819460
 H       -11.3251625564       -1.2816989538      -16.0135658387
 H       -10.9150567043       -1.4506346717      -14.2298794764
 H        -6.1156533678        3.5921871656      -11.5811171492
 H        -5.8060563806        3.3176448239       -9.9006985847
 H        -7.4559278350        3.3292511333      -10.4952803458
 H        -4.3351444991        2.2157448712      -12.2027426160
 H        -4.4252499092        0.4815992345      -11.8821421977
 H        -4.0206815878        1.4997644964      -10.5178073191
 H        -5.8582038865       -2.7108693311       -5.4285127343
 H        -6.7423297318       -1.0568681741       -5.1297616188
 H        -5.7375044219       -1.7031035437       -3.9019337437
 H        -4.5639615825        0.8597308394       -4.4720299893
 H        -2.9600340951        0.3193823530       -4.8750063644
 H        -3.7684040693       -0.3856533287       -3.6419419182
 H         1.2934705655       -1.4817196192       -5.4557342283
 H         2.8015502786       -2.3137191381       -5.9903300791
 H         2.0766886077       -2.7103181621       -4.5338821784
 H         1.3390415043       -2.4560337097       -8.2895391591
 H        -0.1955113313       -2.1041058739       -7.4070415764
 H        -0.0593534912       -3.6047642134       -8.3490687797
 H         6.2143703313       -8.3649649620       -3.0896663265
 H         4.5374285852       -8.2871576208       -3.8311414759
 H         5.0696640850       -7.1669690114       -2.6121434480
 H         6.5490849205       -4.6710693470       -4.6908704312
 H         7.1465670402       -5.3139828050       -3.1712450427
 H         5.4860661396       -4.7935147006       -3.3928951993
 H        10.7215729673      -13.2381125583       -4.7044895236
 H         9.8208006858      -12.3224194899       -5.8879709821
 H         8.9445925102      -13.0941841052       -4.5651995858
 H         9.8883762581      -12.9169503531       -2.3162584295
 H         8.6315176516      -11.7699389421       -2.0372278770
 H        10.3407562647      -11.1881160489       -1.8144999850
 H        16.8222572561       -7.0787116084       -2.6214167805
 H        16.4743979892       -8.7211574037       -3.0492009320
 H        15.7909807573       -8.0176108949       -1.6586882913
 H        14.8159869354       -6.0114209131       -1.6139970694
 H        13.6060573392       -5.5475166688       -2.7228513328
 H        15.2215772732       -5.0199397329       -3.1070519951
 H        12.6674548509       -9.5682952742       -7.6317926730
 H        13.1710628465       -9.5076528968       -9.4268395696
 H        11.5477118317       -9.4658094587       -8.9996402068
 H        14.2285855920       -7.0691349473       -9.9182794212
 H        13.0732591574       -5.8596426565       -9.5111201100
 H        12.6062911831       -7.2128169921      -10.5392205921
 Na       10.6155201960       -7.9224519765       -5.0777198940
 Na      -12.7210965479        3.6699615220      -13.6027431268
