232

 C        10.4505573426       -5.9067358716       -8.9863281855
 C        11.0574135459       -7.1537902497       -8.2773158463
 O        10.3780816570       -7.7874231648       -7.4497800269
 C        12.5400313714       -7.5346841949       -8.4990016830
 C        13.3026518687       -7.1982734807       -7.1365602837
 O        12.7945599920       -7.5352527556       -6.0591783228
 C        14.5804272045       -6.3418284269       -7.1674000956
 C        14.9345473268       -5.9335605962       -5.7130472913
 C        15.3205975291       -7.1515097939       -4.9206712857
 O        15.7974133685       -8.1180693447       -5.5291351765
 C        14.8953819008       -7.2007589328       -3.3756917432
 C        13.6190380665       -8.1685883336       -3.3696953387
 O        12.5006961358       -7.6781842669       -3.1905945676
 C        13.7566797506       -9.7542506986       -3.5236663913
 C        12.5098307711      -10.5807600195       -3.0144328654
 C        11.3985626458      -10.7730110256       -4.1310853279
 O        11.5374526316      -10.2627960213       -5.2221549121
 C         9.9971785950      -11.3701497526       -3.8267732327
 C         8.8934695414      -10.1974628455       -4.1622880904
 O         8.1764603603       -9.7856302948       -3.2645425232
 C         8.5281697098       -9.7355348456       -5.6618164150
 C         7.2072011167       -8.8814090193       -5.5472919628
 C         7.3900434702       -7.4883709862       -4.7763343055
 O         8.4762806104       -6.9965308625       -4.5024228562
 C         6.1081718007       -6.7079439412       -4.5003936146
 C         5.2564847336       -6.4743989479       -5.8762632954
 O         5.8574771257       -6.6771660681       -6.9762924060
 C         3.8087359860       -6.0792822508       -5.6926334947
 C         3.4009866976       -4.9254042616       -6.6163451629
 C         1.8112767400       -4.8315604557       -6.6494975590
 O         1.0561257020       -5.7418753606       -7.0064846080
 C         0.9413179678       -3.4608201039       -6.3568529472
 C        -0.2961742938       -3.8912417842       -5.4451677614
 O        -0.1316388704       -4.1819164658       -4.2889276412
 C        -1.7296387701       -3.7019817989       -5.9789212368
 C        -2.3094727661       -2.3394811664       -5.6949953266
 C        -3.7141366809       -2.0007903565       -6.2402110016
 O        -4.2031142147       -2.5864964426       -7.1901031496
 C        -4.6539787072       -0.8668164826       -5.6939775138
 C        -5.1827985412       -0.0855701258       -6.9843496939
 O        -4.7884958207        1.0123754896       -7.2326791115
 C        -6.2632198846       -0.7385050500       -7.8285858461
 C        -5.8912393133       -0.5500627027       -9.3246347276
 C        -6.7507124389        0.5819397899      -10.0055870322
 O        -7.8962791846        0.7656588952       -9.6186713390
 C        -6.1858207143        1.4037994245      -11.2180278355
 C        -6.9973322042        0.9146230641      -12.3710736374
 O        -6.3869816877        0.2116791710      -13.2156924884
 C        -8.4351415865        1.3852063101      -12.4647949690
 C        -9.2947614129        0.3891339287      -13.2937248393
 C       -10.6484598259        1.0406692381      -13.6333872494
 O       -11.0001201157        1.9589408759      -12.9235927599
 C       -11.3958614715        0.4395913886      -14.9260425893
 C       -12.9011269760        0.6807630009      -14.8774402720
 O       -13.3297789817        1.8673845842      -14.7590032302
 C       -13.9022194852       -0.4577399555      -15.0241605226
 C       -15.0749706913       -0.1857582484      -14.1064626720
 C       -14.7397081238       -0.2388387377      -12.5952784591
 O       -13.8984191091       -1.0495660092      -12.2229729530
 C       -15.6161721511        0.4164389232      -11.4636413662
 C       -14.8897845208        1.8123433559      -11.1067372805
 O       -14.2097598258        2.3943926545      -11.9718565933
 C       -15.1029016808        2.4745845203       -9.7297614755
 C       -14.4224873442        3.9151243208       -9.5318870104
 C       -15.0704893736        5.0652704198      -10.2690852140
 O       -16.1536680875        5.0097751007      -10.7960389498
 C       -14.1605898279        6.4467946461      -10.4228570916
 C       -13.4689073391        6.1885813011      -11.8213416969
 O       -12.5408054797        5.4327479363      -11.9314179442
 C       -13.9626962343        7.0138877665      -13.1864241653
 C       -14.4908816223        6.1522974347      -14.3213928192
 C       -13.4650663689        6.1389096449      -15.5422613780
 O       -12.7114805485        5.1647329907      -15.5524500665
 C       -13.5724286543        7.0689543101      -16.7530476244
 C       -14.7429874074        6.4037100818      -17.5819665529
 O       -15.7464226234        6.0789133406      -17.0024331142
 C       -14.5945634829        6.2111088220      -19.1218620211
 C       -15.9625012116        5.9471253881      -19.8105316383
 C       -15.7691457886        5.7047629471      -21.2780180176
 O       -14.6427506263        5.2985427017      -21.5883278145
 C       -16.9176981715        5.6679828110      -22.3347098754
 C       -18.1333680172        6.5937081190      -21.9194717402
 O       -18.5161871289        6.6911394336      -20.7818360229
 C       -18.9661643159        7.2878746260      -23.0149106087
 C       -16.3723813953        5.9351870937      -23.6986599793
 C       -17.3649472495        4.2169582764      -22.1915507905
 C       -14.0767907413        8.4745827350      -16.2229060002
 C       -12.2373294261        7.1001005508      -17.5702947590
 C       -15.2211276025        7.6843902627      -10.4292599022
 C       -13.1143543022        6.7318367322       -9.3354597147
 C       -16.9902693331        0.7490947188      -12.0680109822
 C       -15.6795906834       -0.5451969215      -10.2022942017
 C       -10.8054150586        1.5587946808      -15.9455794718
 C       -10.9176738263       -1.0057850683      -15.1742700459
 C        -6.5793916872        2.9189473237      -10.8537087986
 C        -4.7242484083        1.3760133831      -11.5829724861
 C        -5.8848786537       -1.5339525829       -5.1123750215
 C        -4.0047605014        0.1626358374       -4.6688912279
 C         1.7952304729       -2.4834657503       -5.5625347901
 C         0.4402156063       -2.8611787688       -7.6545731703
 C         5.4260867328       -7.6138059516       -3.3910147445
 C         6.3256033714       -5.2874262499       -3.8533785027
 C         9.7622445437      -12.5526854006       -4.8100547345
 C         9.5807911033      -11.8982595941       -2.3670775595
 C        16.2202401683       -7.8713857129       -2.6581579247
 C        14.3756621117       -5.9598235278       -2.7152447059
 C        12.5688968817       -9.1360622484       -8.5967766923
 C        13.2727942189       -6.8809509024       -9.8219868056
 H        10.9033709716       -4.9903400059       -8.7185574210
 H         9.3854889844       -5.8192903997       -8.7456584360
 H        10.5699927719       -5.9477738246      -10.0593306524
 H        14.5813442142       -5.4173597285       -7.8138708195
 H        15.3804616788       -6.9967366000       -7.5932582741
 H        14.1669441759       -5.4258014521       -5.1380832606
 H        15.7788295111       -5.2026845283       -5.8562852945
 H        14.6737615874       -9.9851027654       -2.8518599371
 H        14.0620464881      -10.1213151832       -4.4973650401
 H        12.0170620305      -10.0912417524       -2.1614919243
 H        12.8651761699      -11.5382902625       -2.6513543127
 H         8.3311204967      -10.5883068463       -6.2960266962
 H         9.2927318522       -9.0946506220       -6.2626573583
 H         6.3742410772       -9.4430680276       -5.1446176537
 H         6.8659331995       -8.6338991393       -6.5386724019
 H         3.6766737785       -5.6765427654       -4.6901459285
 H         3.0593242127       -6.8596748577       -5.9416033701
 H         3.8394452506       -5.0734335569       -7.6385444172
 H         3.8670025438       -3.9873860848       -6.2822471620
 H        -2.3812425608       -4.4941036667       -5.4992546208
 H        -1.7550768626       -3.9580201803       -7.1036433359
 H        -1.7510729128       -1.4494310611       -5.9774586022
 H        -2.4134869928       -2.2562020718       -4.6153349566
 H        -7.2291548045       -0.2323515493       -7.6317011023
 H        -6.5204265859       -1.8794721720       -7.6180974042
 H        -6.0634071194       -1.5096777154       -9.8342787661
 H        -4.8306711642       -0.3872025896       -9.4270251559
 H        -8.1886723587        2.3201935944      -13.0293127125
 H        -8.9432105044        1.6177803495      -11.5708613763
 H        -9.3009194784       -0.4662922723      -12.6305134931
 H        -8.6423032917        0.1068605428      -14.2102368441
 H       -13.3708848638       -1.4145256318      -14.8444928416
 H       -14.1930226921       -0.5916977880      -16.0842102288
 H       -15.8610109193       -0.9986040988      -14.2550849944
 H       -15.4987244419        0.8137805287      -14.2338034986
 H       -14.5972919835        1.9457316695       -8.9257772292
 H       -16.2637216608        2.6571025026       -9.6033225508
 H       -13.4126536304        3.8937627039       -9.8889384193
 H       -14.4159629751        4.0457125155       -8.4287734339
 H       -13.1904777002        7.6890985244      -13.4418992741
 H       -14.7440275269        7.7371685786      -12.9904747308
 H       -15.3584195808        6.7033037077      -14.6646621453
 H       -14.7192889784        5.1809129310      -13.8664259054
 H       -13.9060305135        5.4345925974      -19.4358648140
 H       -14.1644856712        7.1108745012      -19.6032557055
 H       -16.5298194681        6.8822344113      -19.6483614688
 H       -16.5262669510        5.0554884234      -19.4597609408
 H       -20.0390077062        7.0787954126      -23.0388274819
 H       -18.4144724189        7.2237308189      -23.9141659548
 H       -18.9587977458        8.2958679676      -22.6683345798
 H       -17.0953973700        6.2194203659      -24.4151183219
 H       -15.9713053986        5.0033800063      -24.1747234161
 H       -15.6389428428        6.7621226619      -23.8865442781
 H       -18.0376092077        3.9252189104      -22.9562786319
 H       -17.8758807726        4.0623067706      -21.3155227017
 H       -16.5124838509        3.5371326345      -22.1676247095
 H       -14.9881187844        8.2976021386      -15.7226417131
 H       -14.1168141856        9.2817933543      -16.9195846431
 H       -13.4175535125        8.6678192227      -15.4077246698
 H       -11.9669872489        6.0707173506      -17.9437995406
 H       -11.4406217342        7.4890628490      -16.9772541395
 H       -12.3247980795        7.8227141239      -18.3749539764
 H       -15.7715553219        7.7357801984       -9.5336218029
 H       -15.9406046823        7.4943279470      -11.2946400397
 H       -14.6118599785        8.5816053911      -10.6339927388
 H       -12.3731791017        5.9717556196       -9.0997908510
 H       -13.6582823588        7.0755866724       -8.4376573913
 H       -12.4594509560        7.5154331834       -9.5771209149
 H       -17.5801380830        1.3753850785      -11.3726791719
 H       -17.4894639159       -0.1378879485      -12.2348912166
 H       -16.9167710230        1.2019395391      -13.1006300545
 H       -15.8908595624       -1.5278600551      -10.5564487244
 H       -16.5539497854       -0.3274218519       -9.6634163332
 H       -14.6562842535       -0.4212171160       -9.7833301163
 H       -11.3405847460        2.3934112044      -15.6419922435
 H       -10.8876107601        1.2908017457      -16.9984545215
 H        -9.7366516185        1.7009398926      -15.7670100086
 H        -9.8765731394       -1.0292369651      -15.5016161930
 H       -11.5630498334       -1.5875534859      -15.8799721347
 H       -10.9433523456       -1.4575447139      -14.2487383655
 H        -6.2030555525        3.4774347611      -11.7037552882
 H        -6.1733243043        3.2757387095       -9.9136476196
 H        -7.7276498714        2.9958580678      -10.8044731002
 H        -4.4975658201        2.1993013558      -12.2772795289
 H        -4.5199771048        0.4815916416      -12.0985081834
 H        -4.1398334534        1.5132989120      -10.7190934682
 H        -5.9918454455       -2.5357849640       -5.5732730156
 H        -6.7519971879       -0.8337188581       -5.1734546823
 H        -5.7420062761       -1.7107875659       -4.0709157114
 H        -4.6566146825        0.9694405663       -4.4240361462
 H        -3.1474669185        0.5536499205       -5.0982403968
 H        -3.5750348599       -0.1657949051       -3.7376205833
 H         1.2881642146       -1.6173828209       -5.1012183523
 H         2.6712607935       -2.1365383765       -6.1695581493
 H         2.3705955981       -2.9912159116       -4.7234095721
 H         1.2588335825       -2.3714176784       -8.0614150409
 H        -0.3464385960       -2.1363973927       -7.4307489855
 H         0.2265535187       -3.5544090517       -8.3790804649
 H         6.2748732911       -8.2899210271       -3.1040945851
 H         4.6788237101       -8.1358426613       -3.8593773096
 H         5.0813964501       -7.1341543305       -2.4404935772
 H         6.2418930584       -4.4501726042       -4.5957492839
 H         7.1776058823       -5.1396438191       -3.2168585671
 H         5.4556469781       -4.9589753860       -3.2058518818
 H        10.5096241477      -13.3513257680       -4.5109149173
 H         9.9948350409      -12.3973477370       -5.8526850864
 H         8.7816311979      -12.9549003249       -4.7351268829
 H         9.9388898421      -12.9191789548       -2.1538305720
 H         8.5016782183      -11.9426229679       -2.2701789135
 H        10.0477273479      -11.1320622352       -1.7616334192
 H        17.0559011424       -7.1468744940       -2.7129329465
 H        16.5060009582       -8.7998439027       -3.1890361283
 H        16.1642985409       -8.1707582177       -1.6377900815
 H        14.4263583367       -6.1600611010       -1.6407007441
 H        13.3041318165       -5.7237930545       -2.8627115123
 H        14.8918351786       -5.0623827922       -3.0120610989
 H        12.8711437423       -9.4698327324       -7.6324380801
 H        12.9680883566       -9.5885308937       -9.4798782684
 H        11.5721905847       -9.4114501587       -8.7005503206
 H        14.3273882124       -6.7507032017       -9.8201460776
 H        12.8434487561       -5.8966642941       -9.8990366491
 H        12.9999238941       -7.4695285561      -10.6928995393
 Na       10.7309866807       -7.9787514063       -5.0448995788
 Na      -12.7042811769        3.7072700906      -13.5030589620
