232

 C        10.4812052106       -5.9343319436       -9.0368397260
 C        11.1290570924       -7.1461964457       -8.2816462371
 O        10.4577417935       -7.7247810487       -7.4286529463
 C        12.5249151344       -7.5109669894       -8.4339026126
 C        13.2124754063       -7.0937179013       -7.1388763077
 O        12.8119652474       -7.4859371264       -6.0787797179
 C        14.4963171385       -6.2251837508       -7.1158527551
 C        14.8653217655       -5.8196128002       -5.6199354295
 C        15.1135525584       -7.1915295999       -4.9544843200
 O        15.7212720312       -8.0438368452       -5.5388196108
 C        14.7768161948       -7.4064517932       -3.3564608860
 C        13.5695006221       -8.2875379721       -3.2656420637
 O        12.4410928549       -7.7400610486       -3.2958750089
 C        13.7298763150       -9.8026060989       -3.4573585907
 C        12.4631353446      -10.5438892681       -3.0381407865
 C        11.3876331651      -10.7106408959       -4.0927766709
 O        11.6105004264      -10.2991241154       -5.2085294487
 C         9.9469498856      -11.3509757383       -3.8596097270
 C         8.8781512254      -10.1716478933       -4.2878123186
 O         8.2837323351       -9.6421313778       -3.3596928716
 C         8.5473740885       -9.6947412144       -5.6960718191
 C         7.2976263089       -8.7339515413       -5.7113561737
 C         7.4898631749       -7.4067427371       -4.8502060774
 O         8.6410941310       -7.1817239970       -4.5126855342
 C         6.1502652509       -6.6890795293       -4.5201737006
 C         5.3133205447       -6.5100103983       -5.7934352180
 O         5.7825151471       -6.6686941890       -6.8685453505
 C         3.7956271949       -6.1256692397       -5.7048800467
 C         3.3343863333       -4.8720443057       -6.5666971959
 C         1.8425800334       -4.8302756192       -6.6790747600
 O         1.2973772629       -5.8775234074       -7.0074927257
 C         1.0381132991       -3.4190484707       -6.4005222786
 C        -0.3211175189       -3.8293760368       -5.4407074524
 O        -0.1618211252       -4.2586661430       -4.3345145953
 C        -1.7735330490       -3.6158548313       -5.9586545214
 C        -2.3286134615       -2.2554095344       -5.6590403748
 C        -3.7654708866       -2.0561136745       -6.2953141268
 O        -4.0618409172       -2.6750661569       -7.3226382772
 C        -4.7489077570       -0.8698725392       -5.7563588614
 C        -5.2553200758       -0.0506657441       -6.9244104792
 O        -4.8092161699        1.0496246794       -7.2182538522
 C        -6.3154027264       -0.6745672232       -7.7894337322
 C        -5.8114689712       -0.5200427893       -9.2702967143
 C        -6.6711155432        0.5307024625       -9.9772612612
 O        -7.8523545731        0.6635506286       -9.6141420253
 C        -6.1704689275        1.3996088034      -11.1666810478
 C        -7.0132694697        0.9180313218      -12.4494555595
 O        -6.6032620034        0.2391312865      -13.3664912357
 C        -8.4451302135        1.3354722534      -12.5607834565
 C        -9.3790242885        0.2758393822      -13.2551921873
 C       -10.7260582995        0.9215624168      -13.5080975670
 O       -11.0120464178        2.0344591234      -13.0343977575
 C       -11.3719181380        0.4400475389      -14.7664058959
 C       -12.8971164599        0.7638901812      -14.8288878850
 O       -13.3207844345        1.8683647286      -14.8598508815
 C       -13.9457364311       -0.4181361961      -14.9456175122
 C       -15.1568208280       -0.2919103294      -13.9949869015
 C       -14.7310230203       -0.3809652665      -12.4575783796
 O       -13.8169324590       -1.0521838572      -12.0405998165
 C       -15.6643296067        0.4582541969      -11.4156581452
 C       -14.9882217012        1.8554735926      -11.0212672421
 O       -14.2938924914        2.4094688584      -11.8921006503
 C       -15.0742945940        2.4398831717       -9.6158489832
 C       -14.3592901202        3.8004431616       -9.5369038333
 C       -15.0244711903        4.9831596975      -10.3080225781
 O       -16.1076489535        4.9394212162      -10.7705907084
 C       -14.1848376126        6.4077235897      -10.4931388870
 C       -13.5430693514        6.2000282373      -11.9089918466
 O       -12.6188997532        5.4050772921      -11.9759747781
 C       -13.9832303690        6.9684671890      -13.1307942124
 C       -14.5350090466        6.1456577313      -14.4104525506
 C       -13.4423130066        6.0968663978      -15.5974534287
 O       -12.5300887714        5.3013159883      -15.4480193555
 C       -13.6046934568        7.0408551538      -16.6975161403
 C       -14.7425844007        6.4226933568      -17.6040329664
 O       -15.7504510500        6.0517265963      -17.0533137277
 C       -14.5952060718        6.1550232036      -19.0732943538
 C       -15.8661230281        5.8971278890      -19.7417501397
 C       -15.6878668616        5.8060105053      -21.3126640833
 O       -14.6065061715        5.5938495016      -21.7945008217
 C       -16.9308295628        5.7731343277      -22.3703913507
 C       -18.1031712418        6.7036707991      -21.9557342993
 O       -18.4400846997        6.6453322762      -20.7734352563
 C       -19.1993650868        7.3715073884      -22.9321994137
 C       -16.2559852123        5.8091704167      -23.6877163128
 C       -17.5960024681        4.3541115727      -22.1436963229
 C       -14.0224376562        8.5517224462      -16.4185929985
 C       -12.2594688812        7.0474378817      -17.5245972659
 C       -15.0703723019        7.6419515332      -10.3513870405
 C       -13.0888337740        6.6066278605       -9.4306499171
 C       -17.0133172740        0.7748259586      -12.0169530783
 C       -15.6858342819       -0.4324123708      -10.1386972360
 C       -10.7974217044        1.3912219844      -15.8778748688
 C       -11.1577897926       -0.9947204314      -15.2862362366
 C        -6.6621181957        2.8475814336      -10.8844040521
 C        -4.6962421078        1.2560107206      -11.4815983819
 C        -5.9880947749       -1.4088425104       -4.9059460412
 C        -4.0044012700        0.1837852581       -4.8763384226
 C         1.8342135842       -2.4457917595       -5.5284523592
 C         0.5926025169       -2.7959715193       -7.6983643491
 C         5.2657812275       -7.5253722526       -3.4376397699
 C         6.4258287444       -5.3245183994       -3.9315157705
 C         9.6868684008      -12.5079970136       -4.8675031354
 C         9.7390762820      -11.8665653901       -2.4335336592
 C        16.0677955017       -7.9030503562       -2.6600505103
 C        14.4540284811       -6.0449199027       -2.7855082969
 C        12.7095432397       -9.0856275502       -8.6022289579
 C        13.2139508253       -6.9896202583       -9.7089325132
 H        11.0238965728       -5.0022578529       -8.7923498630
 H         9.4756353449       -5.7966860323       -8.9264012458
 H        10.7170173926       -5.9955402678      -10.0458247493
 H        14.4893504820       -5.2582714251       -7.7595912168
 H        15.3382187045       -6.8315240822       -7.5383505631
 H        14.1785652683       -5.2354435098       -5.1053106193
 H        15.8059807167       -5.2824230010       -5.6928463747
 H        14.6707910733      -10.1684245636       -3.0829621007
 H        13.8089953068       -9.8642100394       -4.5839811358
 H        12.0680758729      -10.0720303277       -2.1384374499
 H        12.6647312816      -11.6581659259       -2.7954972805
 H         8.3106135782      -10.5072864213       -6.4259838361
 H         9.3048983533       -9.1970954571       -6.1637509882
 H         6.4352272649       -9.2368632725       -5.2644073055
 H         6.9409731733       -8.6473935413       -6.7908838223
 H         3.3709549966       -5.8931566880       -4.6917698613
 H         3.2146248845       -6.8768083672       -6.2519913788
 H         3.7584035719       -5.0377093855       -7.6203369301
 H         3.8215450919       -3.9321700713       -6.2212876344
 H        -2.4340878804       -4.4320627458       -5.5644434475
 H        -1.7141779112       -3.7355003209       -7.0184337820
 H        -1.8169478272       -1.4269693492       -6.1264912593
 H        -2.3068436968       -2.0276909445       -4.6319344969
 H        -7.3106576049       -0.2065795083       -7.6393268982
 H        -6.4900565977       -1.7249263856       -7.5626060974
 H        -5.8918913552       -1.4868061144       -9.8651320558
 H        -4.7820862785       -0.2724491008       -9.2538263263
 H        -8.3954256561        2.3476020194      -13.0599232334
 H        -8.8930597548        1.4729229775      -11.5790671966
 H        -9.3216644763       -0.5844970748      -12.5283221598
 H        -8.9360069310        0.0065228664      -14.1913786438
 H       -13.4644162393       -1.4173638944      -14.9148148010
 H       -14.3146718240       -0.4453993050      -15.9386581205
 H       -15.7932810706       -1.1205067460      -14.2396658131
 H       -15.6351051972        0.6191286930      -14.0602382110
 H       -14.4376898334        1.8120543979       -8.8543867402
 H       -16.1139492240        2.6002082523       -9.3822861591
 H       -13.3366265913        3.6445259161       -9.9972636162
 H       -14.2696354219        4.0823730819       -8.3932652456
 H       -13.0962630859        7.5722617453      -13.3502653482
 H       -14.6986084338        7.7753596067      -12.8790911910
 H       -15.4426451253        6.6622532106      -14.7609229904
 H       -14.6875640557        5.1871115300      -13.9323477278
 H       -14.0565440450        5.2513948189      -19.2605536607
 H       -13.9891823198        6.8864523822      -19.6587527919
 H       -16.4558561839        6.7847897717      -19.5367905130
 H       -16.3898788767        4.9887055166      -19.4161901696
 H       -20.1768738725        6.9255730302      -22.6402641386
 H       -18.8502104461        7.1684548324      -23.9529633608
 H       -19.4149942284        8.4199638917      -22.7249729940
 H       -17.0005209935        6.0352874521      -24.5011901833
 H       -15.9043491392        4.8313534790      -23.9872732936
 H       -15.5294713672        6.5397000206      -23.9318810514
 H       -18.0404400982        4.0727017697      -23.0201716798
 H       -18.4215218711        4.3113820954      -21.3986529356
 H       -16.8263777664        3.5947989603      -21.8296976467
 H       -14.7053824015        8.6800811200      -15.6219592378
 H       -14.3296510826        8.8934728866      -17.4184906541
 H       -13.1360568534        9.0680582070      -16.0730011823
 H       -12.0366013358        6.0439729851      -17.8048794000
 H       -11.4760205220        7.5019787340      -16.8898682125
 H       -12.2606575782        7.7621559903      -18.4086741100
 H       -15.5656735034        7.5962291557       -9.3662252101
 H       -15.8757154967        7.5837912827      -11.1009848793
 H       -14.4097173044        8.4923184982      -10.4692028200
 H       -12.4395953435        5.7225513181       -9.4029025072
 H       -13.4495601151        6.8881466583       -8.4585487605
 H       -12.3019389024        7.3024000316       -9.6436115131
 H       -17.6502598642        1.0672627457      -11.2796133415
 H       -17.4202956739       -0.1068665598      -12.5539063798
 H       -16.9005068671        1.5388646330      -12.8671027181
 H       -16.2821046203       -1.2501366941      -10.4151338627
 H       -16.3072924108        0.0374631607       -9.4087501304
 H       -14.6069229783       -0.6337250379       -9.9587883485
 H       -11.0624328684        2.4181921487      -15.6249365118
 H       -11.3023885861        1.0960310070      -16.7458336476
 H        -9.6905969306        1.1736864200      -15.9950268013
 H       -10.1439341151       -1.1753763561      -15.6274655434
 H       -11.9192913856       -1.1979073789      -16.0240567989
 H       -11.3493096901       -1.6344938946      -14.4630462765
 H        -6.5176126014        3.4580698544      -11.8909239024
 H        -6.2107333979        3.3529632447      -10.0294649697
 H        -7.7333044268        2.6921093479      -10.6835698509
 H        -4.4289954431        1.8614809136      -12.2829782215
 H        -4.5756244523        0.2255528571      -11.8315646006
 H        -4.0349582861        1.6085759982      -10.6735707726
 H        -6.3551888318       -2.2129074538       -5.5327771439
 H        -6.6698179192       -0.6148803784       -4.7181164309
 H        -5.6959915404       -1.9717981772       -4.0369576028
 H        -4.7334270382        0.8903848064       -4.3227931719
 H        -3.2879231415        0.7902022040       -5.3778160065
 H        -3.4398563907       -0.2191991362       -4.0786765153
 H         1.1421912436       -1.7750074644       -4.9807171548
 H         2.5315899450       -1.8222258846       -6.0884363207
 H         2.5363438296       -2.8680075089       -4.7320253158
 H         1.4221705415       -2.5296314731       -8.2532286141
 H        -0.0982806725       -1.9880566376       -7.5931468976
 H         0.3535751645       -3.6357311128       -8.3472878204
 H         5.9090698278       -8.0335857785       -2.7484826785
 H         4.6403445956       -8.1541761246       -4.0901189541
 H         4.6162248177       -6.8261650995       -2.7881594814
 H         6.3967324897       -4.4908358245       -4.6831154220
 H         7.3216361134       -5.2961284601       -3.3057318453
 H         5.6767051878       -4.9364624921       -3.2691214498
 H        10.1505014077      -13.4186151613       -4.5443197237
 H        10.2004744553      -12.3126691044       -5.7515772876
 H         8.6215371248      -12.7403302458       -5.1374705536
 H        10.5640460507      -12.5693851986       -2.2116372414
 H         8.8269588448      -12.4535903152       -2.4575066688
 H         9.7671180951      -11.0441037541       -1.7146969021
 H        16.8160941206       -7.0426953059       -2.7497155856
 H        16.5180204379       -8.8285614245       -3.1060604958
 H        16.0003123912       -8.1207432257       -1.6062845850
 H        14.0727216450       -6.0273433648       -1.7952927730
 H        13.6012570668       -5.5751282284       -3.3724616039
 H        15.2757911633       -5.3724339221       -2.9829855754
 H        13.1101242773       -9.3568391482       -7.6638264626
 H        13.1219802702       -9.3889867957       -9.5164753885
 H        11.7290877353       -9.5279056125       -8.7155495416
 H        14.2596497315       -6.9571441690       -9.5205849966
 H        12.8631811259       -5.9485773025       -9.9094972536
 H        13.1011267398       -7.6398257851      -10.6103321514
 Na       10.8504401550       -7.9990523517       -4.9560946722
 Na      -12.6340250095        3.6738054605      -13.4207992212
