232

 C        10.4845789705       -6.0035203386       -9.0927020587
 C        11.0968324495       -7.1493563373       -8.2404399259
 O        10.3557726595       -7.5891970001       -7.4076388473
 C        12.6986256241       -7.5385647933       -8.4175224885
 C        13.2751502696       -6.9962351752       -7.1342453632
 O        12.8457846324       -7.3975948492       -6.0729087464
 C        14.4431142906       -6.0414751334       -7.1420372780
 C        14.7982694455       -5.8159308833       -5.6476001519
 C        15.0803024641       -7.1966427666       -4.9243254350
 O        15.6229859993       -8.1192504438       -5.4697577249
 C        14.7684167736       -7.3333429024       -3.4265615862
 C        13.4520685369       -8.3843725283       -3.4301622482
 O        12.3637286269       -7.9020984636       -3.2821216658
 C        13.5496129714       -9.9131618012       -3.4196011855
 C        12.3347933282      -10.6587048214       -2.9893889518
 C        11.3220624177      -10.6560062331       -4.1860269389
 O        11.6969116217      -10.2851184178       -5.3049584431
 C         9.9139110692      -11.2796112433       -3.9933764395
 C         8.7984751175      -10.1075288652       -4.2393792031
 O         8.3686382519       -9.5291095823       -3.2839533973
 C         8.5314153173       -9.8141524768       -5.6754374593
 C         7.4779865746       -8.7839677382       -5.8451010917
 C         7.5872415835       -7.6100425577       -4.8644057001
 O         8.6371106149       -7.0991747191       -4.5248842371
 C         6.1737722337       -6.7102876877       -4.5281100180
 C         5.2858085190       -6.4730358475       -5.7947438526
 O         5.7448856850       -6.6163058927       -6.8807719401
 C         3.7993270080       -6.1500494847       -5.6811423907
 C         3.4091201216       -4.8362760597       -6.4684535530
 C         1.8299454205       -4.8111686191       -6.6307572430
 O         1.3511591554       -5.8389191054       -7.0012173268
 C         0.9956523087       -3.5254392998       -6.3313745479
 C        -0.2633703869       -3.7870412234       -5.5138234697
 O        -0.1022733050       -4.3093303119       -4.4115955285
 C        -1.7489932896       -3.5456601323       -6.0667272879
 C        -2.3715880537       -2.1500458227       -5.6477546480
 C        -3.7793993691       -1.9469546868       -6.3794948977
 O        -4.0037830602       -2.6863915715       -7.2817301511
 C        -4.7848496047       -0.8615922416       -5.7083587708
 C        -5.3374652803       -0.0076945693       -6.8992435184
 O        -4.8249291080        1.0805508815       -7.1827556363
 C        -6.2864054638       -0.7116266755       -7.9122129996
 C        -5.8176304689       -0.5111480910       -9.3701767029
 C        -6.7435301016        0.4530916424      -10.0224883256
 O        -7.8770579784        0.6026193097       -9.6334057121
 C        -6.2816889151        1.3225662450      -11.2986270021
 C        -7.0721705950        0.8561991406      -12.5552459423
 O        -6.5766964649        0.2187229861      -13.4177744358
 C        -8.5868910903        1.3165727300      -12.4646180910
 C        -9.4741133312        0.2332144958      -13.0781966827
 C       -10.6895593407        0.9470470587      -13.6257926789
 O       -11.0469976632        1.9640207872      -13.0304263642
 C       -11.5467560190        0.4395736950      -14.9212046999
 C       -13.0699313168        0.8004985810      -14.7831266860
 O       -13.4269921927        1.9401853358      -14.8593617875
 C       -14.0173491514       -0.4191649957      -14.7440664752
 C       -15.1847593501       -0.2914213473      -13.7997553281
 C       -14.7224718588       -0.3439087644      -12.3017711264
 O       -13.7619785310       -0.9953739468      -11.9838462689
 C       -15.6345753843        0.4762488089      -11.3525340128
 C       -14.8877903533        1.8817697183      -11.0577458020
 O       -14.3494144994        2.4858028489      -11.9171318467
 C       -15.0593851717        2.4730216768       -9.6431069516
 C       -14.2468305851        3.7947443711       -9.5604007430
 C       -14.9619798718        4.9878625910      -10.2919415572
 O       -16.1120160968        4.8327711056      -10.7413791632
 C       -14.2194327576        6.2998537070      -10.5130202466
 C       -13.5627893858        6.1971522161      -12.0025226923
 O       -12.6845394943        5.3001950498      -12.0558293916
 C       -14.0596205578        6.9922458143      -13.1329294093
 C       -14.5221963640        6.1077831664      -14.3511922766
 C       -13.3359325444        6.1466400684      -15.3424217206
 O       -12.4167206967        5.3760171524      -15.2573355012
 C       -13.5934064492        7.0318299407      -16.7454030768
 C       -14.7943029233        6.3025870267      -17.6198630077
 O       -15.8443547728        6.0694609676      -17.0318017836
 C       -14.5078739817        6.1039117262      -19.0658901823
 C       -15.8266205603        5.8991808642      -19.8799996984
 C       -15.6713836578        5.8152105729      -21.4140316281
 O       -14.5772956054        5.9747837258      -21.8472934131
 C       -16.9769396394        5.7199462397      -22.3965515151
 C       -18.1665711475        6.6570925179      -21.8834412541
 O       -18.4094186744        6.8392808639      -20.6938667520
 C       -19.1679997279        7.3505966039      -22.8752165728
 C       -16.3291458826        5.7971266861      -23.7999258920
 C       -17.7585554954        4.3838473061      -22.1189526933
 C       -13.9246029444        8.5142205923      -16.6133472920
 C       -12.1863631219        7.0278824280      -17.5157242470
 C       -15.0765763872        7.5580470218      -10.3315987486
 C       -12.9691757784        6.3256094115       -9.5046384617
 C       -17.0950159672        0.8082215811      -11.8776433644
 C       -15.7992489625       -0.3755313457      -10.0209999057
 C       -10.7712213390        1.2839245952      -16.0029043354
 C       -11.2538790283       -1.0788722407      -15.3246105371
 C        -6.5774844771        2.8468470278      -10.9148123317
 C        -4.6511417188        1.1607669189      -11.3655158481
 C        -5.9096633007       -1.3730704722       -4.7296450061
 C        -3.9227885291        0.1081893752       -4.9078823128
 C         1.8186382041       -2.4709876274       -5.4923129255
 C         0.7444262896       -2.8246137263       -7.7447676517
 C         5.2942796015       -7.5112770485       -3.5250680214
 C         6.6592532215       -5.2696317654       -3.9699913659
 C         9.7139552887      -12.4437495265       -4.9882676065
 C         9.8343554768      -11.7268314472       -2.5349128555
 C        15.8994323791       -8.0027353354       -2.7112822134
 C        14.5124304221       -5.9098557994       -2.6662572208
 C        12.8092946779       -9.1675040661       -8.4555694550
 C        13.2871190102       -6.8677324609       -9.7649624182
 H        11.1220707941       -5.1409759314       -8.9249977333
 H         9.4184760430       -5.7660741598       -9.0114375328
 H        10.7601229805       -6.1333205502      -10.1246997840
 H        14.0565733363       -5.0790257973       -7.4730577996
 H        15.2343461028       -6.3147514744       -7.8548320666
 H        13.8967141784       -5.3617293439       -5.1921946013
 H        15.6480296773       -5.2004679083       -5.5539582093
 H        14.4063702884      -10.1497799774       -2.8865836269
 H        13.8254771829      -10.1272546129       -4.4787322195
 H        11.9890716571      -10.1011498387       -2.0791776584
 H        12.5046202416      -11.7488862692       -2.7655748228
 H         8.2283930451      -10.6587750426       -6.3015213500
 H         9.4111893851       -9.4713679586       -6.2039457065
 H         6.4412642912       -9.2218316852       -5.7398034607
 H         7.4044830576       -8.3864926714       -6.9022227060
 H         3.4566802079       -5.8527219494       -4.6850853122
 H         3.2089531678       -6.9421635048       -6.1566992911
 H         3.9583977698       -4.8206964807       -7.4129710395
 H         3.8753277818       -4.0446170602       -5.8328787116
 H        -2.3101385419       -4.2730557704       -5.5371341516
 H        -1.7708504686       -3.6881721280       -7.1172125724
 H        -1.8283079357       -1.2272311108       -5.8380143221
 H        -2.4960972363       -2.1600929610       -4.5547574961
 H        -7.3263913330       -0.4038121440       -7.8038401697
 H        -6.3323204640       -1.7087878128       -7.7463583891
 H        -5.8308706127       -1.3885339177      -10.0299230825
 H        -4.7546838362       -0.1503183615       -9.3088926022
 H        -8.7760336926        2.2693151340      -12.9659367448
 H        -8.7901303467        1.4951883717      -11.3496196418
 H        -9.7960332418       -0.5665732202      -12.3791394697
 H        -8.8416432653       -0.0995605170      -13.8367242103
 H       -13.4667915900       -1.3012417551      -14.7090376048
 H       -14.4690468100       -0.5388406235      -15.7259972963
 H       -15.7092391269       -1.1554873509      -13.9567170941
 H       -15.7644474493        0.6049640605      -13.9540568668
 H       -14.5813671653        1.7817265840       -8.9249594628
 H       -16.0538866204        2.6937791339       -9.4728809069
 H       -13.1985829307        3.5549330689      -10.0081764132
 H       -14.1800675844        4.1805522306       -8.4887600714
 H       -13.1727957336        7.6683877097      -13.4308457608
 H       -14.8139709656        7.7298685757      -12.7736816295
 H       -15.3538132565        6.5600966427      -14.8944132824
 H       -14.6902659556        5.1298041265      -13.8985862315
 H       -13.9571600417        5.1763803417      -19.3271691180
 H       -13.8597032487        6.8917439646      -19.4069399591
 H       -16.5155902171        6.6938898756      -19.6130995700
 H       -16.2507816025        4.9519257238      -19.5908680168
 H       -20.1110551209        6.9553257701      -22.5101818166
 H       -18.9170873330        7.1305109340      -23.9421062426
 H       -19.3609744239        8.4342424463      -22.6471985284
 H       -17.0405066494        5.7983335004      -24.6620654696
 H       -15.6742685908        5.0049020055      -24.0197672158
 H       -15.8146192692        6.6954046202      -24.0119793772
 H       -18.3403860744        4.2445794683      -23.1334059375
 H       -18.6120973884        4.3366723968      -21.3572903235
 H       -17.1069296109        3.5343032113      -21.9297944016
 H       -14.4677370646        8.6450300428      -15.6392626347
 H       -14.5389297091        8.6961213764      -17.4925342599
 H       -13.0662585271        9.1934178533      -16.5027438778
 H       -11.9322200236        6.0003944856      -17.7340603055
 H       -11.4845772628        7.5172555821      -16.7790964822
 H       -12.0635805745        7.6763933000      -18.3794036021
 H       -15.4327204188        7.5412428861       -9.2591645082
 H       -15.9469729730        7.3807658000      -10.8667016106
 H       -14.5133657098        8.4457608240      -10.5800160634
 H       -12.2455015508        5.5836951115       -9.7971805373
 H       -13.1462941325        6.3447367056       -8.4497022248
 H       -12.2442358006        7.1768450610       -9.6209504986
 H       -17.7429531333        0.7946710783      -10.9650669853
 H       -17.4717439216        0.0368518817      -12.6257652685
 H       -17.1330009496        1.6692928864      -12.3946107381
 H       -16.7196051246       -0.9401694629      -10.2547010634
 H       -16.2120848144        0.3277526964       -9.2737686199
 H       -14.9184837128       -0.8851319431       -9.8430133712
 H       -10.6061158824        2.3531290749      -15.6443920312
 H       -11.2952137068        1.3319217163      -17.0257087513
 H        -9.8659466834        0.7179852300      -16.0127204655
 H       -10.1976281968       -1.1911723828      -15.1710528439
 H       -11.6109534466       -1.2626014633      -16.2905309913
 H       -11.7311989938       -1.8628022297      -14.6102822493
 H        -6.6458867314        3.5165033715      -11.7617696924
 H        -5.6263443934        3.0981155821      -10.3424139870
 H        -7.3921577838        2.9143720842      -10.2418557121
 H        -4.1834258980        1.6549545068      -12.2339277502
 H        -4.3929491466        0.0921489975      -11.4829575206
 H        -4.1679579173        1.7694691412      -10.5644901576
 H        -6.5652515573       -1.9009941123       -5.3598695770
 H        -6.3735904226       -0.5145977290       -4.3027294719
 H        -5.5712163403       -2.2127595870       -4.1023531577
 H        -4.4782833513        0.8193387362       -4.3124301545
 H        -3.1065516153        0.7400103102       -5.4814258776
 H        -3.3406705700       -0.3709288308       -4.0848961711
 H         1.1472440941       -1.6821702141       -5.1309005628
 H         2.5306364504       -1.9825843832       -6.1548359683
 H         2.3892270421       -2.7639635864       -4.6703732139
 H         1.7177016673       -2.8760498675       -8.3585950813
 H         0.4009023556       -1.8294516865       -7.5925709832
 H         0.2252091784       -3.4807255792       -8.4762132729
 H         5.6674546360       -7.6289039741       -2.5279495287
 H         4.9319222123       -8.4363268054       -4.1466776626
 H         4.4632650526       -6.8808383342       -3.3673037783
 H         6.9640431181       -4.6928429904       -4.7926237279
 H         7.4617606491       -5.3736160152       -3.2115656189
 H         5.9946586140       -4.5906756240       -3.5069130418
 H        10.0305624872      -13.3732058501       -4.6453398334
 H        10.2835272556      -12.2782843417       -5.9189762518
 H         8.6606941008      -12.5876420618       -5.2870210491
 H        10.8424414715      -12.0728614172       -2.2041093615
 H         9.1695644502      -12.5893405442       -2.6092176185
 H         9.4944371925      -10.9615852983       -1.8400515896
 H        16.7610671468       -7.3586881024       -2.6132604725
 H        16.2250441063       -8.9610107944       -3.1270944571
 H        15.5756966367       -8.2390918875       -1.6302775254
 H        14.0396054016       -5.9342740246       -1.6869854945
 H        13.8436318478       -5.2771795379       -3.2054176768
 H        15.4323878305       -5.3046457164       -2.7200124989
 H        13.1841638593       -9.3757279060       -7.4663662996
 H        13.2978735619       -9.4914131695       -9.3610998863
 H        11.8199975665       -9.6596958058       -8.6280094124
 H        14.3693093823       -7.2130363657       -9.8524663657
 H        13.2592756595       -5.7676777181       -9.5793998553
 H        12.8039186130       -7.1084856794      -10.7231607220
 Na       10.8908538724       -8.0104646895       -4.8925962004
 Na      -12.5768312411        3.5937612879      -13.4424147475
