232

 C        10.4535059731       -6.2637391020       -9.6855585251
 C        11.0132126041       -6.9446919379       -8.4205248826
 O        10.2676222798       -7.3355230317       -7.5363884724
 C        12.6499703119       -7.3493114425       -8.3026246258
 C        13.2168825263       -6.6755282361       -6.9663919228
 O        12.7004687232       -6.9352307521       -5.8799651588
 C        14.5907868036       -5.9155333941       -6.9255115644
 C        14.9039925818       -5.7761891328       -5.4516667636
 C        14.9487214061       -7.1610343034       -4.7410978462
 O        15.2804516561       -8.1661582525       -5.3251000291
 C        14.6905033036       -7.3675503517       -3.2335204596
 C        13.3417147415       -8.3566385120       -3.2437064333
 O        12.2320037846       -7.9011094085       -3.3080123562
 C        13.5274678248       -9.8629740428       -3.4894320953
 C        12.2648074428      -10.7941264418       -3.1354845042
 C        11.2059436681      -10.7131296904       -4.2297223671
 O        11.4194245802      -10.0735451222       -5.2773022438
 C         9.8580955741      -11.4710432308       -4.0796331670
 C         8.7617035578      -10.2388052060       -4.3499016483
 O         8.5050240302       -9.4317391691       -3.5268010477
 C         8.2841791846       -9.9424854231       -5.8438180316
 C         7.4614535461       -8.6256359260       -6.0623611814
 C         7.7200877792       -7.3169186833       -5.2130663715
 O         8.8454901963       -6.8672135227       -4.9546028644
 C         6.4995503414       -6.7225322383       -4.5522695628
 C         5.4351301131       -6.4626579807       -5.7998736546
 O         5.8746737018       -6.3230049503       -6.9754338533
 C         3.9329745752       -6.2025193956       -5.5017045139
 C         3.5265244524       -4.8172286046       -6.1723045122
 C         2.0641234652       -4.7221079566       -6.5314753774
 O         1.5022528910       -5.7716708704       -6.7247124070
 C         1.2557261889       -3.3768215498       -6.4269748717
 C        -0.2028728236       -3.7479093184       -5.6903693052
 O        -0.2458943459       -4.3281543115       -4.6293568083
 C        -1.5027350483       -3.3506595587       -6.4673300652
 C        -2.2044310364       -2.2944424012       -5.6077499952
 C        -3.6195144194       -2.0860177781       -6.2097063675
 O        -4.0095268167       -2.7781525537       -7.0933775263
 C        -4.3889105478       -0.8349505721       -5.6976828157
 C        -5.1605063150       -0.0864882382       -6.9582226866
 O        -5.0835447812        1.1087489847       -7.0225361572
 C        -6.1263400724       -0.7876452511       -7.8681391867
 C        -5.7974502253       -0.6823186707       -9.3486503116
 C        -6.7558493851        0.3259298827       -9.9448863449
 O        -7.7819941752        0.6549079597       -9.4094173477
 C        -6.2926472067        1.0772328874      -11.3678831238
 C        -7.2479089023        0.7146708492      -12.4570282187
 O        -6.9390584457        0.0587000401      -13.4483902883
 C        -8.7076675563        1.2054254662      -12.3581947776
 C        -9.5763040337        0.3623849091      -13.3499251029
 C       -10.8909612436        0.8391835749      -13.7631260423
 O       -11.2746139592        1.8728950436      -13.2172608581
 C       -11.6885344440        0.2479054982      -15.0384082086
 C       -13.1720890158        0.4910411537      -14.7726983660
 O       -13.6428556912        1.5964277885      -14.9356110071
 C       -14.1999973061       -0.6614587062      -14.4529932823
 C       -15.3953984919       -0.1190582338      -13.7360929461
 C       -15.0592279691       -0.1320247012      -12.1728202896
 O       -14.0502950443       -0.7394523976      -11.8508392332
 C       -15.7715325411        0.6370547588      -11.0510623894
 C       -14.9383423400        1.9765975330      -10.8827828486
 O       -14.4367519678        2.5423786025      -11.8085787952
 C       -14.6828430445        2.4952879962       -9.4458248058
 C       -13.9078113004        3.8087541574       -9.4358548758
 C       -14.7473037698        4.9486597385      -10.1042825720
 O       -15.8701926129        4.7623112124      -10.4613326800
 C       -13.9739145301        6.3289846465      -10.4138035494
 C       -13.6952969972        6.1095798650      -11.9581006399
 O       -12.8702744851        5.2224935209      -12.1975806117
 C       -14.5603617185        6.8354831400      -13.0367733745
 C       -14.6954965289        5.9822215285      -14.4428217692
 C       -13.4293454342        6.0481307153      -15.3479759135
 O       -12.4150412336        5.3912819781      -15.1351293686
 C       -13.4141836782        6.7521319917      -16.8258482958
 C       -14.6758130000        6.2006554923      -17.7196186009
 O       -15.6949180855        5.8131901659      -17.1853752684
 C       -14.4265540138        6.0646897892      -19.2282209656
 C       -15.6415714181        5.6144753152      -19.9196041729
 C       -15.8461966579        6.1851295845      -21.3549789987
 O       -14.9794329086        6.9961220244      -21.6897417262
 C       -17.0451754479        5.7794968573      -22.1657481493
 C       -18.1480246887        6.8983660468      -21.8388030382
 O       -18.0663991250        7.4475946654      -20.7848262552
 C       -19.3071961320        7.4239368063      -22.6955163289
 C       -16.6016706772        5.8065012702      -23.6750850149
 C       -17.6567825682        4.3638532866      -21.9607377392
 C       -13.4929026379        8.3371215618      -16.6639950885
 C       -12.0411924585        6.4521945175      -17.4987461441
 C       -14.9433902637        7.5023864322      -10.1234128325
 C       -12.6894227570        6.4843511680       -9.6859850636
 C       -17.2450592410        0.8167970065      -11.4546331660
 C       -15.8811671901       -0.3903100347       -9.8484731203
 C       -11.1465681658        1.2053046462      -16.1976591544
 C       -11.2451222352       -1.2128118248      -15.3171174079
 C        -6.4751508079        2.5687673215      -11.0242355953
 C        -4.7982074525        0.8240429985      -11.6815554486
 C        -5.4635615964       -1.5072695405       -4.7257678612
 C        -3.7119247574        0.2292259515       -4.9694393894
 C         1.7706653150       -2.2776421949       -5.5188190114
 C         1.1735726959       -2.8253488952       -7.8589903879
 C         5.8990702319       -7.6634606450       -3.5035390027
 C         6.7200868298       -5.2798037750       -4.0638889962
 C         9.7036195737      -12.5912299216       -5.1962136167
 C         9.6099447892      -12.0540317475       -2.6715147384
 C        15.9867982725       -8.0043073747       -2.6203795405
 C        14.4451317552       -6.0736521201       -2.5003688410
 C        12.6464377932       -8.9001745776       -8.1801564955
 C        13.4559603654       -6.7689285393       -9.4175825530
 H        11.1473479968       -5.7227736404      -10.1602144535
 H         9.5475128096       -5.7331207669       -9.4276866567
 H        10.1317122198       -6.9505627416      -10.4231660141
 H        14.4730418590       -4.9279349362       -7.4486197866
 H        15.4128770429       -6.5423506224       -7.4189693595
 H        14.1431711085       -5.1882878620       -4.9555604841
 H        15.8831702287       -5.4812306270       -5.2706730397
 H        14.4226897641      -10.1766876665       -3.0124130542
 H        13.7816596547       -9.9659114779       -4.5696420492
 H        11.7200016245      -10.2695840270       -2.2741550603
 H        12.6666401500      -11.8172177402       -2.9324631519
 H         7.8076856563      -10.6656019236       -6.4482128665
 H         9.1582035651       -9.7918018755       -6.4612457192
 H         6.3822079335       -8.9163654201       -5.9932932324
 H         7.4476387985       -8.3338914927       -7.1251959615
 H         3.7528815047       -6.0716267848       -4.4202316620
 H         3.3443409947       -7.0229115561       -5.9863367478
 H         4.1033043953       -4.8822193823       -7.1223815247
 H         3.9345409581       -4.0660355088       -5.4329400225
 H        -2.0713404637       -4.2160279996       -6.5409089031
 H        -1.2371282888       -2.8945291060       -7.4058429463
 H        -1.6562041813       -1.3914217845       -5.7747561490
 H        -2.2274538692       -2.4532318448       -4.5461512771
 H        -7.1518640029       -0.4006174350       -7.7349428635
 H        -6.2128708846       -1.8057358485       -7.6279292188
 H        -5.9692625172       -1.6180627050       -9.8331867535
 H        -4.7360639322       -0.3363850971       -9.5238481130
 H        -8.7615915610        2.2821617862      -12.5228489201
 H        -9.2142321325        1.1682657313      -11.3269705564
 H        -9.6021589064       -0.6550724895      -12.9146836274
 H        -9.1459147709        0.3739233126      -14.3340709856
 H       -13.7327029996       -1.5052226484      -14.0253086295
 H       -14.4474108123       -1.0313865574      -15.4687393421
 H       -16.1822250498       -0.7442353037      -13.8941167718
 H       -15.5578440407        0.9293841527      -14.0007412703
 H       -14.1053042171        1.7459113630       -8.9234467123
 H       -15.5964532185        2.6933701283       -8.8615127343
 H       -13.0286052019        3.5857533424      -10.1749104984
 H       -13.7284314234        4.0773419109       -8.3579211723
 H       -13.9610341443        7.7344988021      -13.3154700523
 H       -15.5566230198        7.1107694443      -12.7025578215
 H       -15.4979685010        6.3980943463      -15.0453366105
 H       -14.8829339209        4.9066127732      -14.3533784741
 H       -13.5784107245        5.3774188571      -19.4444992550
 H       -14.0650410600        6.9946880039      -19.6258415735
 H       -16.4815136512        5.8328662637      -19.2543653818
 H       -15.7099623557        4.5083710859      -20.0073841998
 H       -20.0840676685        7.4839069616      -21.9475415607
 H       -19.5944162056        6.7055589207      -23.4800772837
 H       -19.1635408639        8.4030882737      -23.2268823897
 H       -17.3532694705        5.5882418416      -24.4300998940
 H       -15.8372583195        5.0563807696      -23.8743631133
 H       -16.0021387789        6.6612507263      -24.0300344354
 H       -18.7719107331        4.4443134670      -21.6736418534
 H       -17.1037117420        3.9139791691      -21.1419511635
 H       -17.6161589616        3.8761567324      -22.8947715716
 H       -14.4301749298        8.7979452918      -17.0324063124
 H       -12.7388732821        8.7270935666      -17.2877727140
 H       -13.2225493720        8.5640543029      -15.6520406698
 H       -11.8783752815        5.3608517768      -17.6494317716
 H       -11.3307377101        6.8669255308      -16.7385414660
 H       -11.9581104074        6.9950413134      -18.4165261225
 H       -15.1600287889        7.5262827400       -9.0196208184
 H       -15.8885483581        7.4372642564      -10.6408134293
 H       -14.3408581212        8.4121072788      -10.3042775552
 H       -11.9991042275        5.6627314758       -9.7908978785
 H       -12.6569599132        6.7298311978       -8.6347786661
 H       -12.1270853232        7.3427017057      -10.1460200757
 H       -17.6296670454        1.8198734390      -11.0796984679
 H       -17.8277781299        0.0714413582      -10.9275314358
 H       -17.4209996937        0.7810552365      -12.4835296844
 H       -16.2173493257       -1.2478591698      -10.4331648190
 H       -16.4963897683        0.0873208601       -9.0864338857
 H       -14.9176552988       -0.5644407494       -9.5244180577
 H       -11.6378214937        2.1671396177      -16.1952892694
 H       -11.5861058911        0.7629776508      -17.1358224723
 H       -10.1334830382        1.2431262034      -16.1158087259
 H       -10.4401760704       -1.2202762409      -16.0213461082
 H       -12.0685381685       -1.7490635880      -15.7110998149
 H       -10.8845478869       -1.6641955981      -14.3573606356
 H        -5.8978845271        3.2349194419      -11.6500206585
 H        -5.9358694054        2.6091540239       -9.9882526645
 H        -7.5432585746        2.9340725071      -10.8777086044
 H        -4.4099998069        1.3542643228      -12.5863471953
 H        -4.6759531528       -0.2073777031      -11.9137391980
 H        -4.1553678420        1.1382251624      -10.8993342557
 H        -5.8458395070       -2.4390664852       -5.0307093990
 H        -6.2811029321       -0.8150429900       -4.7165067252
 H        -4.9030111409       -1.5877982944       -3.7676886319
 H        -4.2718442734        1.0957472655       -4.8739204805
 H        -2.8382855983        0.6278152819       -5.5665768125
 H        -3.4959415159       -0.0425004617       -3.8810898775
 H         0.9548917380       -1.4765763988       -5.4356410272
 H         2.6794938115       -1.6657453802       -5.8356886009
 H         1.8764862988       -2.5988065596       -4.4948842007
 H         2.1002385993       -2.2359369632       -8.0898834181
 H         0.4539700668       -2.0679868964       -8.0516555737
 H         1.0845764418       -3.5839431514       -8.6158282718
 H         6.6822446271       -8.1756261184       -2.8661984889
 H         5.3653390216       -8.5163678715       -4.0276232259
 H         5.3673239128       -7.0010812037       -2.8751267593
 H         7.1921678888       -4.6720231798       -4.8119541244
 H         7.4743563148       -5.2161790453       -3.2209260546
 H         5.8849227776       -4.6701049153       -3.6439837799
 H        10.4007412099      -13.3867240536       -5.1629705469
 H         9.7577525113      -12.0965326570       -6.1985052100
 H         8.7952437015      -13.1320297041       -5.1654924802
 H        10.3081148989      -12.8464620692       -2.4010209645
 H         8.5457084378      -12.1831600625       -2.5930868534
 H         9.8060279926      -11.3148711130       -1.9125768071
 H        16.8708365087       -7.4011283438       -2.6441749402
 H        16.3367682598       -8.8806811730       -3.1648659729
 H        15.8119521205       -8.2222914995       -1.4997768219
 H        14.3807457350       -6.1267738851       -1.3893037015
 H        13.5350380092       -5.6257516580       -2.8396994293
 H        15.2246390998       -5.2687169932       -2.6091829361
 H        11.6683752044       -9.2746977558       -7.9714357331
 H        13.4886100301       -9.2605703823       -7.6114966576
 H        12.8651343048       -9.1441165722       -9.2060202337
 H        14.5300686604       -6.7306602697       -9.1129484710
 H        13.0548444500       -5.8212091198       -9.6937280866
 H        13.3656981917       -7.2856137029      -10.3262435292
 Na       10.8880272923       -8.0298804657       -5.3073701252
 Na      -12.8558353103        3.5408211633      -13.8838872043
