232

 C        10.5534867541       -6.3414742977       -9.8005206071
 C        11.0753076085       -6.9485026670       -8.4806707137
 O        10.2036962185       -7.1996840701       -7.6694902903
 C        12.5833709485       -7.1917797758       -8.3015569605
 C        13.1306242736       -6.6168086076       -6.9449170872
 O        12.5604636306       -6.6630660092       -5.8448631970
 C        14.5242281609       -6.0149266742       -6.8882557296
 C        14.9183396977       -5.8220832340       -5.3801412531
 C        14.9344014996       -7.2321741852       -4.7014140642
 O        15.2415733710       -8.2077842108       -5.3969506159
 C        14.5494838455       -7.4089858896       -3.1141378155
 C        13.4370918448       -8.3523760140       -3.2459007327
 O        12.3164021839       -7.9112851817       -3.3094193154
 C        13.6877748674       -9.9096182554       -3.5611339006
 C        12.3325239596      -10.6112235305       -3.1042370062
 C        11.1751342758      -10.7547426708       -4.2230085666
 O        11.3463153153      -10.1909469704       -5.3137656450
 C         9.7777096463      -11.4060570935       -4.1586587297
 C         8.8788164774      -10.2094367419       -4.4807546099
 O         8.4683378052       -9.5797933400       -3.4965597148
 C         8.4144651229       -9.8993699399       -5.9312753014
 C         7.5211214077       -8.6118433826       -6.0268298451
 C         7.7623311903       -7.3924879472       -5.1789450424
 O         8.8216750617       -6.7920083464       -5.1514925600
 C         6.4094738196       -6.7080343841       -4.6015929983
 C         5.4465748678       -6.4295081840       -5.7947184929
 O         5.8882105907       -6.3322449408       -6.9890091978
 C         4.0597985725       -6.1068525823       -5.5112800410
 C         3.6065405081       -4.7215866189       -6.0466840828
 C         2.1055775744       -4.7820215240       -6.3057330796
 O         1.5333482172       -5.8123038224       -6.6936618572
 C         1.2901720190       -3.3502981814       -6.4428836252
 C        -0.0888731850       -3.7505385120       -5.8103923645
 O        -0.0749642372       -4.2948510504       -4.7467645416
 C        -1.4107504234       -3.3027413309       -6.4574513582
 C        -2.2104093996       -2.1718564171       -5.7461757124
 C        -3.5976809717       -1.9977086157       -6.3373045586
 O        -4.1371542465       -2.7763020366       -7.1426382507
 C        -4.4623176869       -0.8342387287       -5.6881107695
 C        -5.2090418051       -0.1603198199       -6.8855972861
 O        -5.0090563070        1.0267893169       -6.9901025178
 C        -6.1127876131       -0.9600940016       -7.8371654121
 C        -5.7369406877       -0.6913723266       -9.3279502488
 C        -6.7165846291        0.3592589140       -9.9527541011
 O        -7.7580384973        0.7287956297       -9.4338235195
 C        -6.2691649560        1.0079526597      -11.2890376991
 C        -7.3200823553        0.6517652866      -12.4821707221
 O        -6.9275083637       -0.0700526440      -13.4154756218
 C        -8.8285481926        1.0145655614      -12.3885389059
 C        -9.5438158704        0.3354058629      -13.4938256251
 C       -10.8933856374        1.0467310984      -13.8324795588
 O       -11.4321586288        1.9855313483      -13.3549698788
 C       -11.7100584825        0.2535787447      -15.0386422462
 C       -13.2839176231        0.4552487098      -14.8865496706
 O       -13.8381628708        1.6096077830      -14.8956868613
 C       -14.2661148342       -0.7126696747      -14.5178807970
 C       -15.4571238183       -0.2833457850      -13.6420695290
 C       -14.9888105626       -0.1381106311      -12.1707472367
 O       -14.0819072894       -0.8993261155      -11.8159723551
 C       -15.8367635285        0.6181508892      -11.0617924926
 C       -14.9150071982        1.9928367573      -10.8009297921
 O       -14.5229575913        2.6267550659      -11.7830316415
 C       -14.5960743405        2.5473228671       -9.3658169607
 C       -13.7749306480        3.9083961999       -9.4239156044
 C       -14.6794581752        4.9170860615      -10.0088141174
 O       -15.8386814559        4.7961851172      -10.2890094869
 C       -13.9323614723        6.3621787426      -10.4866830041
 C       -13.7532069545        6.0068077858      -11.9978148955
 O       -12.8990451461        5.1932462384      -12.2363058065
 C       -14.5836112332        6.6681519375      -13.0564626870
 C       -14.6759876624        5.9716591404      -14.4781288106
 C       -13.5167490420        5.9705586143      -15.4191429563
 O       -12.5246710014        5.2446257586      -15.2032579626
 C       -13.3537536583        6.7451552516      -16.7936598079
 C       -14.5450666965        6.2115889410      -17.6979787685
 O       -15.5314041397        5.7577830620      -17.1653648964
 C       -14.4121489672        6.1997125367      -19.2001597525
 C       -15.6251716225        5.5497498045      -19.8633213843
 C       -15.7770202191        6.2082134259      -21.3229427422
 O       -15.1038555474        7.2111742349      -21.6257731560
 C       -17.0595391599        5.9237801435      -22.2231154531
 C       -18.0997843207        7.0142285222      -21.7437905601
 O       -17.9668166957        7.5007409108      -20.6521263162
 C       -19.2860299283        7.1453836561      -22.7004144545
 C       -16.5684217920        5.8915077954      -23.7158238793
 C       -17.8904043276        4.5939604503      -21.9093108467
 C       -13.4615618190        8.3330615882      -16.7125504834
 C       -12.0787968978        6.2949467757      -17.4604705565
 C       -14.9159470307        7.6097484089      -10.1696142515
 C       -12.6456909679        6.5398780385       -9.8007161404
 C       -17.3064218690        0.9443440562      -11.4585561445
 C       -15.8372786407       -0.3200745741       -9.7847950519
 C       -11.0592614758        1.0851807997      -16.2625537354
 C       -11.3404906641       -1.1843828835      -15.2472385783
 C        -6.4230124106        2.5493193261      -10.9371515019
 C        -4.8467895188        0.6983201346      -11.6536097005
 C        -5.5674548765       -1.4193413143       -4.7300775652
 C        -3.4994104307        0.1840051203       -4.9845159885
 C         1.8677509753       -2.3192015385       -5.4429837871
 C         1.3024062792       -2.9085827581       -7.8581161144
 C         5.7507236947       -7.4995066804       -3.4778493959
 C         6.8433556193       -5.3959569300       -3.9658019002
 C         9.6504582331      -12.5131057107       -5.1794882573
 C         9.4327086068      -12.1034924947       -2.7992646548
 C        15.8673146841       -8.0596579345       -2.4474209583
 C        14.3539351467       -6.0839148109       -2.4749942116
 C        12.7221504573       -8.8012488711       -8.1105369667
 C        13.4831949015       -6.6588137128       -9.4692912458
 H        11.3808208029       -5.8287656106      -10.3265417715
 H         9.6894633819       -5.7440744163       -9.6852895425
 H        10.2395529232       -7.0721177949      -10.5453156730
 H        14.6973906274       -5.1228624663       -7.4579155992
 H        15.1980612437       -6.8042455355       -7.2660652970
 H        14.1850188222       -5.2522977110       -4.8151737398
 H        15.9685351955       -5.4353928920       -5.3848736749
 H        14.5336962005      -10.3677638922       -2.9872222864
 H        13.9431308453      -10.1014764105       -4.5681001987
 H        11.8990562752      -10.0145165412       -2.2219991990
 H        12.7520812786      -11.5839889332       -2.8602443173
 H         7.8446972699      -10.6863138591       -6.3017186785
 H         9.1785375953       -9.8270375847       -6.7995966486
 H         6.4322597659       -8.9576003328       -5.9146058443
 H         7.4505390913       -8.1465829543       -7.0184872549
 H         3.8372836793       -6.1288261676       -4.4581788281
 H         3.4282500512       -6.8182547573       -6.1243682866
 H         4.1243444089       -4.5785144235       -6.9934497075
 H         3.8127928491       -4.0027221447       -5.2499998181
 H        -2.0444360085       -4.1189710152       -6.3879210119
 H        -1.1508340921       -3.0825449867       -7.5013652567
 H        -1.6805290931       -1.2436246897       -5.6349739718
 H        -2.5248258387       -2.5348854964       -4.7415210926
 H        -7.0846674419       -0.6630598685       -7.7481066125
 H        -6.1409307152       -2.0660932961       -7.6356813560
 H        -5.8104900301       -1.6353625822       -9.8648689688
 H        -4.6802311628       -0.2892362205       -9.4140658198
 H        -8.9196979875        2.1300532100      -12.4826830783
 H        -9.4157836138        0.8900075876      -11.4624394547
 H        -9.6860940215       -0.6483442072      -13.2084150081
 H        -9.0632033855        0.3688102177      -14.4919630957
 H       -13.6614299536       -1.4149076786      -14.0148904416
 H       -14.4785152869       -1.2147914769      -15.4572462996
 H       -16.1938342824       -1.0804470270      -13.5600937676
 H       -15.8627835523        0.6547446357      -13.8783476158
 H       -14.1114619711        1.8609450762       -8.7975656021
 H       -15.5339594708        2.7424984920       -8.8240106074
 H       -12.9545763894        3.7701711271      -10.1497170734
 H       -13.5517560329        4.1958626362       -8.3728905445
 H       -14.1202285139        7.7113488281      -13.0802406415
 H       -15.6577668133        6.7128915696      -12.7676694987
 H       -15.5837076103        6.2226360693      -14.9980124096
 H       -14.7401900658        4.8764130840      -14.3082155189
 H       -13.5271812991        5.6098620141      -19.5601863099
 H       -14.1865224186        7.1773588841      -19.5616025722
 H       -16.5689528930        5.5056156520      -19.3251229359
 H       -15.3929793689        4.5109392232      -20.0128975683
 H       -20.2435700686        7.5659859976      -22.2702735481
 H       -19.4630904198        6.1334828354      -23.1329051493
 H       -18.9619865547        7.7000354570      -23.6151796826
 H       -17.2859922693        6.0102228819      -24.4317603149
 H       -16.0706622335        4.9672212587      -24.0293259097
 H       -15.7452132610        6.5839715261      -23.9577771313
 H       -18.8191894101        4.8982409573      -21.4022567869
 H       -17.2825319851        4.0372014279      -21.1515905464
 H       -18.2436095237        4.1287709847      -22.9221719653
 H       -14.3252517864        8.6323884693      -17.3151859436
 H       -12.6107126861        8.8041616678      -17.2433090794
 H       -13.4280304582        8.6961211525      -15.6685836980
 H       -11.9713962136        5.1668859403      -17.6083865319
 H       -11.3713194731        6.6082170748      -16.7000026642
 H       -11.9605567496        6.8407186303      -18.3914396793
 H       -15.0951280350        7.7123853643       -9.1380546929
 H       -15.8993682383        7.4308649834      -10.7046566313
 H       -14.4131434848        8.5470423475      -10.4698229988
 H       -11.9281569727        5.7109427817       -9.7122307331
 H       -12.6670934248        6.8782870186       -8.7331602177
 H       -12.1106964061        7.3575003086      -10.2900712850
 H       -17.6333175982        1.9123435957      -11.0491808095
 H       -17.9095230400        0.2314943775      -11.0352665063
 H       -17.4860336694        1.0427236408      -12.6330582793
 H       -16.3014886868       -1.1834314390      -10.1462882970
 H       -16.1458963891        0.2388128635       -8.9685265817
 H       -14.7543810823       -0.5604844998       -9.7100033661
 H       -11.3502945420        2.1239048631      -16.1053043881
 H       -11.5508953156        0.8338115866      -17.1972189181
 H        -9.9187441461        0.9545570901      -16.1747330984
 H       -10.3556734164       -1.3302656411      -15.7496883662
 H       -12.1329355088       -1.6507683397      -15.9177837313
 H       -11.3424135634       -1.5918763816      -14.2913184928
 H        -5.9178625765        3.2310257209      -11.6301982351
 H        -5.9847882456        2.6919961325       -9.9916658549
 H        -7.5355361730        2.8005421171      -10.8147676282
 H        -4.7408187197        0.9864888305      -12.7547155064
 H        -4.6998724338       -0.4020638396      -11.7297636721
 H        -4.0123324817        1.1496497432      -11.0997908606
 H        -5.8982305186       -2.4257691925       -4.9525808078
 H        -6.4623436171       -0.7964165175       -4.8081545166
 H        -5.0974576043       -1.3004864557       -3.7945690151
 H        -3.8737375971        1.0789157281       -4.3718702917
 H        -2.9668776974        0.6730326420       -5.7911037663
 H        -2.8196520351       -0.3168836561       -4.1969707370
 H         1.3304619792       -1.4507681009       -5.0871808913
 H         2.7746694161       -1.9056678840       -5.9270372078
 H         2.1808800832       -2.8562446300       -4.5188174208
 H         2.2915860798       -2.5242722087       -8.1516622343
 H         0.7177717917       -1.9021282063       -8.0088245501
 H         0.8796723712       -3.5972361140       -8.5977649654
 H         6.5346421705       -8.0261956352       -2.8538565905
 H         5.2102679103       -8.2702252486       -3.8972553073
 H         5.1960060844       -6.7536270975       -2.8223630711
 H         7.1123901517       -4.5735256447       -4.6215702481
 H         7.8063281393       -5.5998880034       -3.5823893404
 H         6.3263608496       -4.9027860714       -3.1350770795
 H        10.1463207986      -13.4155915792       -4.7728254722
 H        10.0078985172      -12.2904252602       -6.1686904021
 H         8.6758598208      -12.8500091780       -5.2952574381
 H        10.3539326210      -12.4900697822       -2.3677319247
 H         8.5389480132      -12.7282082471       -2.8369505712
 H         9.1421799599      -11.3527890055       -2.0430611201
 H        16.7978266193       -7.4852376299       -2.6866706763
 H        16.1996572803       -9.0358114987       -2.9002210659
 H        15.8513486331       -8.0817258347       -1.3653931765
 H        14.2735110535       -6.1066862994       -1.3836521022
 H        13.5635326880       -5.4393387170       -2.8516908516
 H        15.2806036964       -5.5270442088       -2.5319162829
 H        11.7122999609       -9.2540706206       -8.0492399245
 H        13.3502669232       -8.9000350818       -7.2076347842
 H        13.2272859285       -9.2418142220       -8.9678338749
 H        14.4827115343       -7.0395859184       -9.2440971294
 H        13.4603541591       -5.5924368992       -9.7226836288
 H        13.0919623780       -7.1019821292      -10.4138023456
 Na       10.9446730151       -8.0160163160       -5.3695013424
 Na      -13.0088500974        3.4337359233      -13.7590836972
