232

 C        10.6098564667       -6.3355466606       -9.9733081098
 C        11.1248477953       -6.8330004676       -8.5147625882
 O        10.2835538438       -7.1720424687       -7.7164514422
 C        12.6065908236       -7.0892752268       -8.2474627478
 C        13.0763871276       -6.5000295936       -6.8952211926
 O        12.3063438558       -6.4094505012       -5.9879404823
 C        14.5678211927       -6.0673011587       -6.8066966264
 C        15.0330114511       -5.8465267494       -5.3292182817
 C        15.1030832364       -7.2811018036       -4.6599530732
 O        15.1883606576       -8.2634935110       -5.3954985144
 C        14.7555967765       -7.3551792798       -3.2193054352
 C        13.3816444701       -8.3848204268       -3.3173500846
 O        12.2773381926       -7.8849025143       -3.2615310642
 C        13.4612803774       -9.9340905003       -3.4883345479
 C        12.1770592959      -10.6663682953       -3.1656302632
 C        11.2748241873      -10.7671833802       -4.3535677607
 O        11.5593952666      -10.2909869114       -5.4192609078
 C         9.8623280752      -11.4537522494       -4.1657613335
 C         8.7693362963      -10.2055979501       -4.4369696595
 O         8.3209728471       -9.5138563688       -3.5219298815
 C         8.5557560761       -9.8298059962       -5.8052808780
 C         7.4640963007       -8.7481904272       -6.0387191531
 C         7.7603305977       -7.4806491557       -5.2513527672
 O         8.8230944009       -6.9059560494       -5.1847160907
 C         6.5712172511       -6.6517860951       -4.6007714644
 C         5.5498269962       -6.2575369972       -5.8313307400
 O         5.9733380060       -6.4028692477       -6.9112617478
 C         4.0605882665       -6.0735413353       -5.4660925232
 C         3.6132812839       -4.6453995544       -5.9311908369
 C         2.1476812322       -4.7485337933       -6.3341852475
 O         1.5915797363       -5.7676345689       -6.6170127249
 C         1.4185251047       -3.3673338334       -6.4004290687
 C        -0.0430431211       -3.6647694803       -5.8159278252
 O        -0.0652901446       -4.2816885552       -4.7730026717
 C        -1.4265866124       -3.3857917201       -6.6192523265
 C        -2.1338889740       -2.2524879514       -5.8648939023
 C        -3.6041115135       -2.0630323703       -6.2502555702
 O        -4.0799097929       -2.7723180800       -7.1395556870
 C        -4.4580397799       -0.8618677277       -5.6927836664
 C        -5.2351981697       -0.1070951552       -6.8405086137
 O        -5.0087743752        1.0618469840       -7.1477079957
 C        -6.1293293813       -1.0329497655       -7.6863942696
 C        -5.8050715179       -0.6707032033       -9.2065120012
 C        -6.7055560644        0.3739254662       -9.9554840689
 O        -7.7651518488        0.6341343880       -9.4008055868
 C        -6.3035655781        1.0038761432      -11.3192830779
 C        -7.3491134104        0.5373271747      -12.4401781511
 O        -6.8490873542       -0.1363797602      -13.2823958635
 C        -8.7949317103        0.9285773892      -12.3523721100
 C        -9.6707060395        0.3657958290      -13.5740736318
 C       -11.1064984586        1.0085382833      -13.9167916662
 O       -11.2856927506        2.0432331527      -13.3456289993
 C       -11.8779267210        0.2922376834      -15.0596178109
 C       -13.3692871164        0.5027838485      -14.9004313877
 O       -13.8935696744        1.6276540378      -14.9395530912
 C       -14.2317252734       -0.7236955578      -14.5653671582
 C       -15.3985127939       -0.3833698377      -13.6411981663
 C       -14.9891993001       -0.3541776509      -12.1171235727
 O       -14.0479411645       -0.9475035137      -11.7281735386
 C       -15.7467966428        0.6483631929      -11.0332558082
 C       -14.9715066187        2.0119885742      -10.7907255179
 O       -14.6153778653        2.6224489291      -11.8084383418
 C       -14.6171547278        2.4558675183       -9.4053586569
 C       -13.7581375574        3.8499977558       -9.4722732838
 C       -14.6558528509        5.0316884728       -9.9645915828
 O       -15.8638059373        4.8926993651      -10.0634881055
 C       -13.9354597397        6.3604687494      -10.5519683545
 C       -13.7276127125        5.9742927143      -12.0867406785
 O       -12.8861996859        5.1248163266      -12.2470545307
 C       -14.6258723428        6.6030443564      -13.1754629944
 C       -14.7439551983        5.9838576943      -14.4850516053
 C       -13.4325646939        5.8987339905      -15.3794941041
 O       -12.6294497747        5.0144454288      -15.1924302686
 C       -13.2581348036        6.7436393931      -16.7721911745
 C       -14.5334517567        6.1284701192      -17.6747601504
 O       -15.5209785272        5.6779386891      -17.1191043798
 C       -14.3766190077        6.2959385022      -19.1975627907
 C       -15.5381739643        5.5491848324      -20.0185193988
 C       -15.8361962977        6.3318482675      -21.2364293182
 O       -15.1842956790        7.2522740152      -21.5769658977
 C       -17.0459026683        5.9756502919      -22.1624915540
 C       -18.0315303120        7.0554645923      -21.8054835420
 O       -17.9997643342        7.5995604522      -20.6883217011
 C       -19.2848911301        7.0629293395      -22.6765624035
 C       -16.6311158423        6.0346407542      -23.6090625521
 C       -17.8694106329        4.6848488358      -21.8044696037
 C       -13.5116037955        8.2419560385      -16.6814390007
 C       -11.9491107155        6.2396537213      -17.4533180786
 C       -14.8724347192        7.5600855663      -10.3139403943
 C       -12.5608492011        6.6643569175       -9.8809019960
 C       -17.1637282205        1.1722714791      -11.4449404656
 C       -15.7264621946       -0.1114595198       -9.6833310110
 C       -11.2367015746        1.0213532465      -16.4074963676
 C       -11.4862853208       -1.2310275317      -15.1825458999
 C        -6.3397655752        2.6332891424      -10.9946382458
 C        -4.9323725121        0.6086773204      -11.8062699407
 C        -5.5896014929       -1.3593009134       -4.7054808940
 C        -3.5135467258        0.1161209788       -5.0041201775
 C         2.0491130481       -2.3600502624       -5.4175486036
 C         1.4033568264       -2.9591687525       -7.8495270240
 C         5.6702452465       -7.5414152937       -3.5123029593
 C         7.0569290830       -5.3066682721       -3.9031455470
 C         9.7194752513      -12.5297338434       -5.2945803137
 C         9.3178909143      -12.0591071006       -2.7769555335
 C        15.8296451446       -8.1367627794       -2.3464895658
 C        14.2231032532       -6.1278249476       -2.4551640561
 C        12.8590635224       -8.6338015527       -8.0410743215
 C        13.4351818406       -6.7077238285       -9.4825785573
 H        11.4241978947       -5.7359080545      -10.5431384586
 H         9.6167593413       -5.8858263534      -10.1077313782
 H        10.5511379651       -7.2437812509      -10.6345594447
 H        14.7462034693       -5.1025479908       -7.2510342587
 H        15.1477253417       -6.7261318621       -7.3540864903
 H        14.2257769795       -5.3125335288       -4.8053711294
 H        16.0159134221       -5.2619668555       -5.4638691604
 H        14.3276789849      -10.3919348793       -2.9484796355
 H        13.7270900774      -10.0578242384       -4.5380174014
 H        11.6494955036      -10.2016738305       -2.3720823858
 H        12.5889933399      -11.6462607940       -2.9648066104
 H         8.3009775037      -10.7516183034       -6.4322637255
 H         9.4401268357       -9.5040174772       -6.3939405024
 H         6.4666638612       -9.1512650400       -5.8279691348
 H         7.3790724817       -8.3832255686       -7.0848944274
 H         3.8054149617       -6.1617532812       -4.4142463506
 H         3.4366280701       -6.6971602709       -6.0896987000
 H         4.2442278020       -4.4265823986       -6.7731006685
 H         3.7126586594       -4.0338799593       -5.0867097906
 H        -2.0600519196       -4.3571048869       -6.6262547730
 H        -1.0827916375       -3.1411135503       -7.6273943482
 H        -1.6550142481       -1.2953410311       -6.1894213174
 H        -2.0126835527       -2.3576058265       -4.7627579591
 H        -7.1953804960       -0.8728090907       -7.4945563176
 H        -5.9640259688       -2.1146143609       -7.5317616779
 H        -5.7975765354       -1.6627945039       -9.7545171034
 H        -4.8164126254       -0.2749830728       -9.2294245118
 H        -8.8634665772        2.0311240006      -12.2361310594
 H        -9.2564576636        0.6507856888      -11.4357918401
 H        -9.7672213910       -0.6886591762      -13.2851696405
 H        -9.1527817397        0.4006873386      -14.5567999894
 H       -13.6155313471       -1.5781540522      -14.2221920915
 H       -14.5448051934       -1.0396217472      -15.5429139769
 H       -16.1909500024       -1.2194063994      -13.7142072405
 H       -15.8000850534        0.6091500711      -13.8193528548
 H       -13.9277606147        1.6620995509       -8.8867310496
 H       -15.4402330425        2.4572452055       -8.7236040833
 H       -12.9651508060        3.6785107823      -10.0941007574
 H       -13.5491728048        4.0248336993       -8.4438711390
 H       -14.3792734693        7.6752603520      -13.2269908948
 H       -15.6796532613        6.4344627996      -12.7837689734
 H       -15.5370528057        6.5199480993      -15.0461799497
 H       -15.1175538090        4.9456520238      -14.4507504865
 H       -13.3749148292        6.1630938048      -19.5705918980
 H       -14.5306993913        7.3958001497      -19.3319502661
 H       -16.5140647963        5.6105887862      -19.5194341473
 H       -15.4924641409        4.4765965681      -20.1488237056
 H       -20.0112872108        7.8320911159      -22.3309671715
 H       -19.8065069461        6.0935103027      -22.8272588054
 H       -18.9359471788        7.3366237346      -23.6586388146
 H       -17.4568202896        6.4466315473      -24.2022325169
 H       -16.3257584046        5.2059105144      -24.1855157409
 H       -15.8250365877        6.6816571461      -23.7343057715
 H       -18.4712052895        4.9740997172      -20.9575989182
 H       -17.2052468071        3.8436222658      -21.4528791569
 H       -18.5862813960        4.5524961660      -22.6429222343
 H       -14.2882346568        8.5419122452      -17.3765310316
 H       -12.5856521746        8.8128535702      -17.0325765549
 H       -13.6362335734        8.5395214356      -15.6105081667
 H       -12.0246458227        5.1782127614      -17.6044731589
 H       -11.1607402787        6.3686728855      -16.7204504331
 H       -11.8017257965        6.7634833081      -18.4461718815
 H       -14.8369145370        7.8383898015       -9.2735883663
 H       -15.8968576412        7.3480128724      -10.6608185855
 H       -14.4401095054        8.4083287147      -10.8248628938
 H       -11.8197806083        5.8229928935       -9.9248958998
 H       -12.5481847482        6.7556848187       -8.7876105790
 H       -12.1025024535        7.5759159226      -10.2497840566
 H       -17.5495158651        1.9840475512      -10.8924871104
 H       -17.9179980189        0.3073268592      -11.3838591441
 H       -17.0596516312        1.5348955137      -12.4685022467
 H       -16.3622983217       -0.9128046216       -9.8972717112
 H       -15.9840112306        0.6450575093       -8.9923906604
 H       -14.7121001027       -0.5207978775       -9.5144812581
 H       -11.3216154051        2.1305470970      -16.2618823691
 H       -11.8046458641        0.7629608822      -17.2726025929
 H       -10.1374257054        0.6957258195      -16.3552141549
 H       -10.3996518038       -1.4460536698      -15.1643064488
 H       -11.8607307736       -1.5973093176      -16.1737549732
 H       -11.9626097460       -1.6779898755      -14.3257027547
 H        -6.1151786523        3.2003157457      -11.9149387675
 H        -5.6760845853        2.9243923199      -10.2391892718
 H        -7.2906382493        2.8623684727      -10.6962869362
 H        -4.7597520394        0.8527638237      -12.8418985171
 H        -4.7621555931       -0.5319472834      -11.7792200548
 H        -4.0924263243        1.0689920664      -11.1588318870
 H        -5.9298232949       -2.3175001731       -5.1450514388
 H        -6.4942499024       -0.7264740428       -4.7072116816
 H        -5.1734489771       -1.3947145249       -3.7025658119
 H        -4.1095597614        0.8610802673       -4.3490028510
 H        -3.0296068555        0.8037789661       -5.7052774761
 H        -2.8528211220       -0.3270709541       -4.3165439160
 H         1.5593991629       -1.4290667574       -5.3763533791
 H         2.9580475827       -2.1169185939       -5.8938920415
 H         2.1905722767       -2.6231423061       -4.3510641579
 H         2.3935738927       -2.9164570631       -8.3008017448
 H         1.0982871707       -1.8880806289       -8.0217355747
 H         0.6323839542       -3.5634923000       -8.4637280703
 H         6.2694230290       -7.9966638655       -2.7932751430
 H         5.2334840209       -8.3832350046       -4.0600164280
 H         4.9286448233       -6.8606146046       -3.0269076814
 H         7.1067129166       -4.3940789919       -4.5133937356
 H         8.0160529114       -5.2459289454       -3.4662134092
 H         6.3697892949       -5.0582804243       -3.1592038445
 H         9.9853214234      -13.5438907894       -4.9834633156
 H        10.2445193181      -12.2703430156       -6.1573874535
 H         8.6556724691      -12.6514228261       -5.6473399821
 H        10.1292661713      -12.2509880648       -2.0604242749
 H         8.6048209973      -12.9075804003       -2.8735228241
 H         8.7064058862      -11.3027711657       -2.2177781992
 H        16.8298406552       -7.6360541977       -2.3161180245
 H        16.1220421204       -9.1265935134       -2.6779708604
 H        15.5055758119       -8.1060773657       -1.3498660708
 H        13.9924538132       -6.4015512382       -1.4614840688
 H        13.2920247015       -5.7813694484       -2.9474319855
 H        14.8143900114       -5.2836814843       -2.2508126637
 H        11.8547886803       -9.1244405632       -8.0132278759
 H        13.3452573273       -8.6678230244       -7.0536665872
 H        13.4305476656       -9.1075818080       -8.8869842644
 H        14.3364247389       -7.2745540409       -9.5170831369
 H        13.6812855378       -5.6163165151       -9.6019185458
 H        12.8106090129       -6.8817270860      -10.3981523040
 Na       10.8232789427       -7.9185684334       -5.4361454025
 Na      -13.2164275069        3.3558040989      -13.6068967075
