232

 C        10.7406623246       -6.3059741280       -9.9992768232
 C        11.1542162200       -6.8560640165       -8.6835961982
 O        10.4299522131       -7.1990546288       -7.7611498899
 C        12.6640615331       -6.9877848490       -8.2803933755
 C        13.1496742874       -6.2338360147       -7.0156432076
 O        12.2929574218       -5.7667019794       -6.2607679677
 C        14.6069500173       -5.8980612818       -6.7700366009
 C        15.0068815562       -6.0211800042       -5.2784074104
 C        14.9012053130       -7.3652923589       -4.7323693986
 O        15.3703704211       -8.3798611841       -5.2618639842
 C        14.4735663967       -7.4865250484       -3.1607674188
 C        13.1900437879       -8.3991130519       -3.2541312552
 O        12.0840194772       -7.9493655645       -3.4973672513
 C        13.3913469980       -9.9298530715       -3.2857100490
 C        12.0434175366      -10.6830006136       -3.0507308880
 C        11.2111775418      -10.7665827687       -4.3336258735
 O        11.5985152653      -10.4249831931       -5.4825670783
 C         9.8805784736      -11.4009893667       -4.2580218808
 C         8.8318098665      -10.1528439671       -4.5419766786
 O         8.1983475304       -9.6765946740       -3.6216237950
 C         8.4249963043       -9.8171172572       -6.0175010999
 C         7.3239327204       -8.7352724667       -6.0467619155
 C         7.7545599301       -7.4825191996       -5.1425400348
 O         8.9069521265       -7.1330934163       -4.9311673064
 C         6.5574911019       -6.7549430028       -4.5509295305
 C         5.6134627562       -6.3326020789       -5.7696067931
 O         6.1091585348       -6.2416661818       -6.9477146289
 C         4.1325734522       -6.1075224228       -5.4979574871
 C         3.7598687308       -4.6795862356       -5.8573583819
 C         2.2602867888       -4.6697577871       -6.2405843984
 O         1.7241143196       -5.7147478422       -6.6124214304
 C         1.4260747023       -3.3430553687       -6.4058337276
 C        -0.0544557944       -3.6826145865       -5.8393504877
 O        -0.1489804880       -4.0680208019       -4.7138049593
 C        -1.3469863693       -3.2985674921       -6.6739730418
 C        -2.0372561901       -2.1169834171       -6.0287297453
 C        -3.4911630265       -2.0105506738       -6.3602350785
 O        -4.0412955361       -2.8995986185       -6.9510195066
 C        -4.4364138373       -0.9119794580       -5.7804052537
 C        -5.1247293634       -0.1501665189       -6.9016972355
 O        -4.7895424245        0.9910695158       -7.0998309323
 C        -6.2507050155       -0.8768142168       -7.7428889678
 C        -5.9836980209       -0.7583579027       -9.3021227117
 C        -6.8260799625        0.2600146514      -10.0035335508
 O        -7.8672574697        0.6046867913       -9.5153893280
 C        -6.3736043509        0.9734804153      -11.3171483787
 C        -7.4267047673        0.3806163659      -12.3059367461
 O        -7.0679589587       -0.3626857738      -13.2462312147
 C        -8.8900179664        0.9575996992      -12.3047084761
 C        -9.6435403772        0.3304169688      -13.4716019965
 C       -10.8952689719        0.9168447954      -13.9310248705
 O       -11.2755495849        1.9752149606      -13.3867536293
 C       -11.9331830910        0.2253593515      -15.0662916214
 C       -13.4637695317        0.4706798361      -14.7108736348
 O       -13.8928488176        1.5690464243      -15.0084566679
 C       -14.4427512260       -0.6335280986      -14.3877005641
 C       -15.4858389609       -0.2341202652      -13.3855452349
 C       -14.9305060417       -0.2751379945      -11.9542695841
 O       -13.9854928705       -1.0401987628      -11.6758314880
 C       -15.6520927736        0.7405240846      -10.9791165821
 C       -14.8236985535        2.0340352757      -10.8960775152
 O       -14.6941261682        2.6487904260      -11.9480623630
 C       -14.3666914008        2.6440322811       -9.5944403890
 C       -13.6730598483        3.9910816451       -9.5807288648
 C       -14.6437032606        5.0955993877       -9.8853421088
 O       -15.8110179852        5.1175367743       -9.5997829744
 C       -13.9687279212        6.3437955150      -10.6673582324
 C       -13.7094905893        5.8723899228      -12.1011312614
 O       -12.7972950609        5.1315921223      -12.3868845865
 C       -14.5525987994        6.5915778115      -13.1578123887
 C       -14.7193508726        5.9784787234      -14.5774262616
 C       -13.5045081521        5.6286528421      -15.4315744122
 O       -12.7958126796        4.6534290753      -15.1470024192
 C       -13.3015599508        6.4463768032      -16.6493439163
 C       -14.4769793056        5.9781483041      -17.6725391734
 O       -15.4603191973        5.4390444092      -17.2217464573
 C       -14.3709715058        6.4016394922      -19.1849220874
 C       -15.4354109943        5.7190767574      -19.9752916475
 C       -15.8697735027        6.4398678230      -21.2407899978
 O       -15.1045199224        7.3724741671      -21.5999232594
 C       -17.1579661621        6.0725436703      -22.0456017646
 C       -18.3613989025        7.2020757925      -21.7265975333
 O       -18.1537031648        7.9707560553      -20.8404226483
 C       -19.5701460882        7.4201984598      -22.6382974722
 C       -16.7625165997        6.0995644918      -23.5014146467
 C       -17.3802701645        4.5300729141      -21.7308869688
 C       -13.4712056733        7.9932336871      -16.3677357957
 C       -11.8436875451        6.2694638521      -17.3152849443
 C       -14.8974703320        7.5985502757      -10.4757155511
 C       -12.5576784330        6.5986564200      -10.0239223207
 C       -17.0035804256        1.1304101048      -11.5104844404
 C       -15.8544496784       -0.0624420978       -9.6399851931
 C       -11.7971383108        0.9695486781      -16.4101362476
 C       -11.5467885121       -1.2781055479      -15.2032775649
 C        -6.4182929552        2.5069403536      -11.2789171669
 C        -4.8998021566        0.5150316550      -11.6620910641
 C        -5.3690450180       -1.5548441587       -4.8174769690
 C        -3.6306847128        0.2089419701       -4.9174647652
 C         1.9581047921       -2.1465053380       -5.5856614533
 C         1.4756425778       -2.9027245952       -7.8385659380
 C         5.9930864557       -7.6760859064       -3.4176209899
 C         7.1257813270       -5.4896797914       -3.9280719049
 C         9.6239694717      -12.4381955104       -5.3475306943
 C         9.6078169493      -11.9732964161       -2.8953636811
 C        15.6271513979       -8.2343763786       -2.3837591061
 C        14.1578233692       -6.1878440929       -2.4615416775
 C        12.9874167293       -8.5397516198       -7.9329237743
 C        13.6464952868       -6.6380711319       -9.4620898802
 H        10.8404171453       -5.2331585556       -9.9689967707
 H         9.7100007980       -6.5629744374      -10.1700401411
 H        11.2649930194       -6.6682129009      -10.8778102780
 H        14.8868527607       -4.8599172795       -7.0807110139
 H        15.2421589782       -6.5798717523       -7.4450766525
 H        14.4861862570       -5.3329861346       -4.6283000624
 H        16.0412877708       -5.8343393585       -5.2885614681
 H        14.1600522028      -10.2245154606       -2.5707089664
 H        13.8633021604      -10.1191867731       -4.2790367073
 H        11.5215472983      -10.2159895284       -2.1724901710
 H        12.3254431307      -11.7163239755       -2.9544602791
 H         8.2266326161      -10.5799904868       -6.6951595368
 H         9.2020049371       -9.2312083359       -6.5528905983
 H         6.4318358038       -9.1659927509       -5.5804219187
 H         7.0939920361       -8.4366828018       -7.0566737180
 H         3.8368238443       -6.2505405165       -4.4714918249
 H         3.4121793076       -6.6719087128       -6.1211265350
 H         4.3265275141       -4.4602738994       -6.7684164531
 H         3.9587431149       -4.0540117094       -4.9629802550
 H        -1.9742431162       -4.1332499028       -6.5671759695
 H        -1.0431963731       -3.2573048273       -7.7392395626
 H        -1.5109816218       -1.1878870125       -6.2420239867
 H        -2.0448399411       -2.2785822850       -4.9414641462
 H        -7.2833808140       -0.5620476258       -7.4447464830
 H        -6.1175236658       -1.9699555582       -7.5366876948
 H        -6.1438120553       -1.7106571087       -9.7210976190
 H        -4.9009996383       -0.5190655640       -9.4587965598
 H        -8.9501687231        2.0312837236      -12.3754684170
 H        -9.2521391844        0.7763290258      -11.2670432314
 H        -9.9367301181       -0.6894211503      -13.1458167500
 H        -8.8991156368        0.1517308024      -14.2840854550
 H       -13.8202214233       -1.4865599862      -14.1934178362
 H       -14.9766901155       -0.8640893631      -15.3676970724
 H       -16.3196051578       -0.8933305101      -13.4583817597
 H       -15.7836754459        0.8323311041      -13.5529755246
 H       -13.8176133418        2.0603203821       -8.9391476604
 H       -15.3536954836        2.6760564762       -8.9703855215
 H       -12.9308734268        3.9280838798      -10.4523637055
 H       -13.2313954663        4.0175379855       -8.5735508786
 H       -14.1184174391        7.5882000247      -13.2236888065
 H       -15.5419407833        6.5692427057      -12.7992109032
 H       -15.4116899791        6.5400198935      -15.2049186191
 H       -15.3127047943        5.0518871533      -14.5316909734
 H       -13.3081697250        6.3446893407      -19.5919579053
 H       -14.6043445569        7.4642411987      -19.2571449901
 H       -16.3109924238        5.4052915687      -19.3834472857
 H       -15.0781502318        4.6938328259      -20.2559853322
 H       -20.0825461213        8.3156232902      -22.3768091356
 H       -20.2579017695        6.6874003117      -22.2618019155
 H       -19.4558873511        7.2822031205      -23.7057336035
 H       -17.5743401847        5.9187794091      -24.1611841344
 H       -16.0307244527        5.3068222577      -23.7861423249
 H       -16.2073838020        7.0224516349      -23.8787083603
 H       -17.0914736489        4.2159218447      -20.7594381197
 H       -16.8463131162        3.9965929495      -22.4201519371
 H       -18.4276263638        4.4638880543      -21.9774740547
 H       -13.8142227360        8.4406028105      -17.3090346106
 H       -12.5537939794        8.4375387659      -16.1085843880
 H       -14.0876411762        8.2480632223      -15.5178340476
 H       -11.6996893732        5.2601136459      -17.7349174479
 H       -11.0244059594        6.4523564151      -16.6498141471
 H       -11.9471203941        6.9101750465      -18.1148348080
 H       -14.7836807927        7.9733756983       -9.4716681835
 H       -15.9043080980        7.2180025594      -10.6782970735
 H       -14.7705106960        8.4250952483      -11.1896387573
 H       -11.7893698999        5.9325272581      -10.2499528686
 H       -12.5602107078        6.3624913835       -8.9753242004
 H       -12.2557012165        7.6359964550      -10.1386280322
 H       -17.6276776979        1.3869443128      -10.6447588222
 H       -17.4356417468        0.3519974094      -11.9572473116
 H       -17.0308153326        2.0833076927      -12.1412219229
 H       -16.3341158732       -0.9779295922      -10.0054578627
 H       -16.4070511468        0.6032619256       -8.9956795304
 H       -14.8505966271       -0.2921034496       -9.3284082496
 H       -12.0238007040        1.9585076488      -16.1543892092
 H       -12.5014151439        0.5688724843      -17.1678205370
 H       -10.7918716440        0.9170901286      -16.7592536719
 H       -10.6848933263       -1.2198038959      -15.8464025112
 H       -12.2213015178       -1.8931345152      -15.7719844234
 H       -11.2553808344       -1.6847911788      -14.2678422599
 H        -6.5838306593        2.8590940272      -12.2764880374
 H        -5.4626226230        2.9008358457      -10.9125069657
 H        -7.2484180088        2.9790585291      -10.6232959036
 H        -4.5225370315        1.0673102596      -12.5492436835
 H        -4.8546784820       -0.4963459218      -11.9264930874
 H        -4.2294022442        0.5623272508      -10.8709063282
 H        -6.1521296136       -2.0137592884       -5.4149840860
 H        -5.7965769775       -0.7669285162       -4.1436144399
 H        -4.8025271974       -2.1804366572       -4.1040733796
 H        -4.2494880984        1.0859273688       -4.7782021066
 H        -2.7380067822        0.5333728123       -5.3840409536
 H        -3.3438159965       -0.2630161416       -3.9494771538
 H         1.3247017756       -1.2691801909       -5.8092483852
 H         3.0113064472       -1.8714473502       -5.8146767595
 H         1.8179339225       -2.3090520928       -4.5457953925
 H         2.5146685467       -2.7527678339       -8.0657847266
 H         1.0353189615       -1.9590644863       -8.0752251818
 H         0.9857685752       -3.4988686259       -8.4910855181
 H         6.9072456720       -8.0863651385       -2.8844906530
 H         5.3593897369       -8.4823130387       -3.7151287115
 H         5.3894493479       -7.0305508044       -2.7723553383
 H         7.6848056260       -4.9441914453       -4.6667193207
 H         7.9312816419       -5.5852185372       -3.2072789076
 H         6.4322625710       -4.7412998722       -3.4689186201
 H        10.3248069139      -13.3006693775       -5.2412987248
 H         9.7711579977      -12.0373682811       -6.4061648905
 H         8.6327418539      -12.8160708994       -5.3543229280
 H        10.4174108321      -12.5629674355       -2.4183796503
 H         8.7718235370      -12.6861230486       -2.9628714867
 H         9.2747915670      -11.2263136279       -2.1844473854
 H        16.3843500302       -7.6091360166       -1.9783952372
 H        16.0817784805       -8.9472130735       -3.0644297028
 H        15.2690413945       -8.8357852517       -1.5394604424
 H        13.8901812009       -6.3197542057       -1.4005496582
 H        13.3899069598       -5.6009836827       -2.8859600058
 H        15.0433331829       -5.5539685706       -2.3179866637
 H        12.1173683372       -8.8960446070       -7.3840888318
 H        13.8092636983       -8.5786013245       -7.2172286814
 H        13.0155595505       -9.0851542507       -8.8397324976
 H        14.7110020209       -6.5985464776       -9.1547621180
 H        13.4303730025       -5.6468298568       -9.7851121810
 H        13.5590972830       -7.2695764958      -10.3189934177
 Na       10.8958587326       -7.7821429891       -5.5135920235
 Na      -13.3741835338        3.1740432637      -13.5415453773
