232

 C        10.8576053261       -6.2094588931       -9.8860371935
 C        11.3597367220       -6.9602320414       -8.6768223685
 O        10.5877096137       -7.3671980913       -7.7858932094
 C        12.9329769846       -6.9819834813       -8.3811894282
 C        13.2512903418       -5.9693827603       -7.1834213518
 O        12.4259827750       -5.4900393118       -6.4465087266
 C        14.7581018294       -5.9142702083       -6.7247336084
 C        14.8280132531       -5.8631412636       -5.2192679334
 C        14.7932160340       -7.3713156777       -4.6144179775
 O        15.2892106139       -8.2322232038       -5.2598329428
 C        14.4176713319       -7.6514847937       -3.1410911365
 C        13.1763303015       -8.4723345901       -3.3635671726
 O        12.0967208920       -7.9452117270       -3.6725588665
 C        13.2227396111       -9.9732038490       -3.1222807883
 C        11.9725633809      -10.7876567125       -3.1113760532
 C        11.1538376313      -10.6666215836       -4.4298126908
 O        11.5778148607      -10.1378340937       -5.4026534872
 C         9.8382018344      -11.5158924864       -4.4087709280
 C         8.7001591809      -10.3740847801       -4.6400565308
 O         8.1973371955       -9.8599765864       -3.6941235960
 C         8.3789112087      -10.0728741305       -6.0650489518
 C         7.5231842707       -8.7016230896       -6.2244018073
 C         7.9420195832       -7.6171163190       -5.0312206936
 O         9.0962452610       -7.3545955428       -4.7308045443
 C         6.5563528962       -6.7186832814       -4.4189141516
 C         5.6470116558       -6.3109070272       -5.5984775267
 O         6.1491749906       -6.0609628808       -6.6240980435
 C         4.1663063697       -6.1078663154       -5.3443681504
 C         3.6614278798       -4.6111612360       -5.7673235342
 C         2.2007873610       -4.5765555795       -6.3045858681
 O         1.6382666836       -5.5622474174       -6.6656928914
 C         1.4401781116       -3.2675693181       -6.4029972740
 C         0.0072192657       -3.4878456945       -5.8412733399
 O        -0.1151156900       -3.8384479875       -4.6713236528
 C        -1.2642397190       -3.1630831240       -6.6820493865
 C        -1.9974126426       -1.8886299103       -6.1323241496
 C        -3.5232836621       -2.0173414061       -6.3511112260
 O        -3.9572336630       -2.9654521003       -6.9631948922
 C        -4.3642720477       -0.9060265533       -5.7019838177
 C        -5.0817837275       -0.1701001517       -7.0122714161
 O        -4.6650380345        0.9142048265       -7.3352854405
 C        -6.1923393704       -0.8956449175       -7.7613466670
 C        -6.1943418352       -0.7536501770       -9.2638562155
 C        -6.9935979347        0.2553548735       -9.9889343633
 O        -7.9980532699        0.6973176843       -9.4996588156
 C        -6.5017574018        0.8879564030      -11.4033259515
 C        -7.4662005776        0.1780744310      -12.4843798636
 O        -7.1485551412       -0.7181588398      -13.1889658951
 C        -8.9341634460        0.9469260876      -12.6280415018
 C        -9.7998425730        0.0906335804      -13.5276950900
 C       -11.0955126889        0.8727005960      -13.9316085558
 O       -11.3797153369        1.9006052494      -13.3990010290
 C       -12.0258869084        0.1716996470      -15.1112626344
 C       -13.4965757851        0.3058834160      -14.7245518254
 O       -14.0351549515        1.4019572651      -14.7679031142
 C       -14.3499482944       -0.8912562602      -14.2458709703
 C       -15.4718775761       -0.2556535134      -13.4022762365
 C       -15.0503569112       -0.1420713238      -11.9145501926
 O       -14.0927798483       -0.7104028305      -11.4944066370
 C       -15.7948209820        0.7642530130      -10.7983119448
 C       -14.9270535328        2.0270384136      -10.7846429881
 O       -14.7747423505        2.7008344646      -11.7897137790
 C       -14.3057077262        2.5025328989       -9.4884172157
 C       -13.5444194029        3.8500596975       -9.8120657927
 C       -14.4762243681        5.1239537636       -9.8447605586
 O       -15.5342334101        5.2354904398       -9.2874258301
 C       -13.9036520232        6.5248207625      -10.6624062935
 C       -13.7328370178        6.0701790219      -12.1252880036
 O       -12.9218965964        5.2103746451      -12.4151598067
 C       -14.5591111487        6.6349427584      -13.3158776824
 C       -14.7387268041        5.5211988731      -14.4066786683
 C       -13.6757229864        5.3568553594      -15.5075289830
 O       -12.8538350202        4.4926569372      -15.3998335922
 C       -13.3971606752        6.4219486852      -16.5722239252
 C       -14.3546136733        5.9692672679      -17.7061750720
 O       -15.1877963610        5.1557729742      -17.3169036686
 C       -14.3107806904        6.5928001190      -19.1738581849
 C       -15.5092961856        6.0092148876      -19.9715917037
 C       -15.7955344777        6.6559743679      -21.3544622380
 O       -15.1732760519        7.5663599292      -21.7556839224
 C       -17.1201893339        6.2071233629      -22.1046393555
 C       -18.1941825749        7.2531981030      -21.6756221487
 O       -18.0613311120        7.9897829974      -20.7154620236
 C       -19.5149460414        7.0657660426      -22.5103181777
 C       -16.9387203480        6.4717217718      -23.5851470015
 C       -17.8268930088        4.8609395467      -21.7430810590
 C       -13.3984727265        7.9221058504      -16.1611151603
 C       -11.9742332273        6.1056971215      -17.0818148539
 C       -14.8403279008        7.6855157484      -10.4938470163
 C       -12.5554165027        6.8605101600       -9.9990080379
 C       -17.3015385416        0.9641250025      -11.2809166036
 C       -15.7804515390        0.0222496691       -9.4686745301
 C       -11.5914488407        0.9923628947      -16.2864459691
 C       -11.6462678746       -1.3506624852      -15.2971793622
 C        -6.5923109223        2.4089324956      -11.2857533333
 C        -5.0906194890        0.4482754730      -11.8329252735
 C        -5.3870913861       -1.6977313712       -4.8157525038
 C        -3.5609979902        0.0873726673       -4.8271892950
 C         1.9692570588       -2.0926146248       -5.5904334390
 C         1.4798118278       -2.9343311893       -8.0149013077
 C         5.8278612095       -7.5134586116       -3.3220654684
 C         7.0495065864       -5.3917476036       -3.9361975273
 C         9.7363160537      -12.7422452127       -5.4392381432
 C         9.4304071451      -12.0923775331       -3.0580094300
 C        15.4880357853       -8.2738981778       -2.3045717067
 C        14.0042886574       -6.2647668474       -2.4625493404
 C        13.3139751591       -8.3964567418       -7.9408508359
 C        13.7339253121       -6.5630777961       -9.5871164212
 H        10.5487434362       -5.2321818265       -9.5461308872
 H         9.9165090799       -6.6171180678      -10.3580653753
 H        11.5237988937       -6.1965460995      -10.7292557781
 H        15.0785370301       -4.9660358386       -7.1627986813
 H        15.3627870868       -6.6379499032       -7.1623614954
 H        14.1175440477       -5.1254671963       -4.8013183015
 H        15.8914721971       -5.6078948400       -4.9025503049
 H        13.8096590334      -10.0934887860       -2.1942207133
 H        13.8217326298      -10.3961971785       -3.9255112803
 H        11.3246143762      -10.4011047832       -2.3158725777
 H        12.2546533067      -11.8884334260       -2.9868585035
 H         7.7238352726      -10.9210360682       -6.5322718623
 H         9.2441745028       -9.9854581418       -6.6974197247
 H         6.4611372250       -8.9003795224       -6.4525838173
 H         8.0420181339       -8.1821296213       -7.0788284090
 H         3.7924679135       -6.2941445037       -4.2984327286
 H         3.6003273634       -6.8521945995       -5.9697991332
 H         4.2882066586       -4.4298993280       -6.6700645031
 H         3.8960786491       -3.9660879828       -4.9314489425
 H        -1.8632691114       -4.1085541772       -6.5588962130
 H        -1.1274087805       -3.2128437879       -7.7299822430
 H        -1.5712743049       -1.0267710071       -6.6301228538
 H        -1.9322425714       -1.7567868776       -5.0683024539
 H        -7.1144029531       -0.5172610948       -7.3258662104
 H        -6.0619541394       -1.9365756381       -7.5684793345
 H        -6.5913670588       -1.7337344252       -9.7232723726
 H        -5.1903448420       -0.6951610276       -9.5952185981
 H        -8.6097514369        1.8891680221      -13.1853012051
 H        -9.3383554611        1.3146853386      -11.6800169827
 H       -10.0782920410       -0.7966067827      -12.9218405569
 H        -9.1927274999       -0.3933771884      -14.2723156617
 H       -13.6974999274       -1.6220699650      -13.7381908620
 H       -14.7844423376       -1.3498745046      -15.0827467748
 H       -16.3514715716       -0.9266514437      -13.4150554544
 H       -15.8256658266        0.6961365810      -13.7276586612
 H       -13.7650851890        1.6177585529       -8.9787025407
 H       -14.9725861066        2.6188452873       -8.7167845089
 H       -12.9980465583        3.7260173670      -10.7269733712
 H       -12.9123345886        4.0847151326       -8.9196170324
 H       -13.8236776392        7.3832322156      -13.6450802077
 H       -15.5884635233        7.0319403514      -13.0853618690
 H       -15.7087714395        5.4897400452      -14.9012976431
 H       -14.8294707174        4.5391837068      -13.9892946701
 H       -13.3799004231        6.1344340413      -19.4157484860
 H       -14.1391603096        7.6882928761      -19.2714740602
 H       -16.4224415691        6.0266197702      -19.4022783005
 H       -15.3405917487        4.9568190365      -19.9314965713
 H       -19.9312973225        8.0663786096      -22.7296898919
 H       -20.4164234394        6.6066269076      -22.0286836054
 H       -19.1852272365        6.6406882700      -23.4616075577
 H       -17.2377759441        5.5914214879      -24.2330152026
 H       -15.9135687861        6.5883501446      -23.8361196492
 H       -17.4271320274        7.2971047324      -24.0205879700
 H       -18.1483988802        5.0149820851      -20.6636880383
 H       -16.8957845078        4.1827413771      -21.7153528673
 H       -18.4996392419        4.5802848682      -22.5404610209
 H       -12.8297498624        8.4801250317      -16.8921233773
 H       -13.1503069177        8.2342192805      -15.1326686846
 H       -14.4300698563        8.3007896797      -16.2693599248
 H       -11.9765089142        5.0667387448      -17.3256808664
 H       -11.2847851177        6.2190157346      -16.2239040353
 H       -11.7477087127        6.6697036541      -18.0301175679
 H       -14.9535160261        7.7670973402       -9.3764800517
 H       -15.7738146611        7.5622067600      -11.0190588174
 H       -14.4520441792        8.6208592436      -10.9086226407
 H       -11.8828457090        5.9840867104       -9.9525870830
 H       -12.5944711037        6.9951196319       -8.9272047022
 H       -12.1060486472        7.7379401372      -10.4520654958
 H       -17.8991964895        1.7202887943      -10.7484029103
 H       -17.8269694076       -0.0960181915      -11.3148671272
 H       -17.2574329046        1.3153948549      -12.2578917083
 H       -16.3928721038       -0.8598764699       -9.6568830101
 H       -16.2954247733        0.7077069691       -8.7776223599
 H       -14.7494395208       -0.1921324624       -9.3149092272
 H       -11.8145621534        2.0989051693      -16.1536303699
 H       -11.8959268582        0.4847758807      -17.2079356130
 H       -10.5071816840        0.8655077600      -16.3348659786
 H       -10.6905424982       -1.3823835096      -15.7929118799
 H       -12.3121626473       -1.7564279233      -16.0260750843
 H       -11.5976612837       -1.9149828065      -14.3007430435
 H        -6.3458222512        2.9385223597      -12.2410432827
 H        -5.9346329078        2.7645547778      -10.4428715932
 H        -7.5809607684        2.6961973458      -11.0160433868
 H        -4.9793314425        0.8759658248      -12.7929951536
 H        -4.7773445669       -0.6179058321      -11.7632154712
 H        -4.2976400113        0.8095778496      -11.1208431472
 H        -5.9258796181       -2.2389479430       -5.5582381588
 H        -5.9634919426       -1.1498753043       -4.1479674411
 H        -4.8569445937       -2.3672253911       -4.1621825559
 H        -4.2628858361        0.8219423395       -4.4590770174
 H        -2.7005185137        0.6141534248       -5.4172943857
 H        -3.0494562730       -0.4847916137       -4.0241405097
 H         1.1970917338       -1.2810954629       -5.5343690413
 H         2.9262213061       -1.6782530748       -5.9735705809
 H         2.1026538051       -2.4232723804       -4.5208077795
 H         2.3823893670       -2.4036719437       -8.4038494067
 H         0.5846687891       -2.4004769160       -8.2731641559
 H         1.2153903704       -3.8119146377       -8.6933277469
 H         6.5379827064       -7.9054634079       -2.6363457406
 H         5.3116992320       -8.3617929246       -3.9158538971
 H         4.9509954983       -7.0566322817       -2.8883594094
 H         7.9192764683       -4.9405327069       -4.4248104537
 H         7.4636742848       -5.4185176932       -2.9176486179
 H         6.3088362704       -4.6407820433       -3.8528222507
 H        10.4261354947      -13.5084726284       -5.2077116592
 H         9.8076844983      -12.5349603879       -6.4662440390
 H         8.6852506969      -13.1311105082       -5.3567465112
 H         9.4459777699      -13.1739654978       -3.0684006660
 H         8.3933708166      -11.9817629286       -2.8082674061
 H         9.9757061495      -11.7592698880       -2.1919366967
 H        16.4219393453       -7.6426025779       -2.3878540148
 H        15.6909745536       -9.3431925580       -2.4887539382
 H        15.1996856171       -8.2637988478       -1.2284685062
 H        13.7817678769       -6.2939699845       -1.3967710400
 H        13.0409792591       -5.8730635902       -2.8915982029
 H        14.7554956055       -5.4678685759       -2.5502610764
 H        13.4288961481       -8.5482609925       -6.8873194293
 H        14.3343500980       -8.5507101170       -8.2230108061
 H        12.5797978083       -9.0559079370       -8.4104925738
 H        14.7990462254       -6.6855690342       -9.4311288381
 H        13.6887616068       -5.4735655246       -9.8195618362
 H        13.5266367328       -7.2251288472      -10.4419554901
 Na       11.2237529314       -7.6098156922       -5.7490846387
 Na      -13.0612495618        3.1533661565      -13.6541836866
