232

 C        10.7700163525       -6.1963467186       -9.8300863280
 C        11.4904494223       -6.8349896853       -8.6746884301
 O        10.7473820356       -7.4817076048       -7.9401589893
 C        13.0671937594       -6.9792864374       -8.4580232086
 C        13.3387879864       -6.0606989780       -7.1927403110
 O        12.4479217526       -5.4703900589       -6.5942307104
 C        14.8191689303       -5.8836268650       -6.6895955635
 C        14.8585653987       -5.8485974968       -5.2183245788
 C        14.9412752384       -7.2489669030       -4.6195803443
 O        15.2297128064       -8.1303436849       -5.3992888732
 C        14.4225587021       -7.6046355855       -3.0552584778
 C        13.1418577951       -8.4714525944       -3.1822119968
 O        12.1406812900       -7.9251617472       -3.6701379266
 C        13.2178554292      -10.0601252799       -3.0953029489
 C        11.9176633307      -10.8506545723       -3.1157113146
 C        11.0288782948      -10.7570345436       -4.3866332261
 O        11.3262582793      -10.1010753339       -5.3727600744
 C         9.6792754833      -11.6481740938       -4.3730083254
 C         8.6640282920      -10.4303202560       -4.7246199188
 O         8.1873755641       -9.9645082548       -3.7298776092
 C         8.3668798219       -9.9518843333       -6.1463793028
 C         7.6100544133       -8.5088863816       -6.1927077021
 C         7.8657848121       -7.5635451585       -5.0896598246
 O         9.0094851894       -7.4026294452       -4.6676290305
 C         6.6998053878       -6.8135579996       -4.3762968341
 C         5.6685210009       -6.2481478143       -5.5670685240
 O         6.1629913485       -5.9902993936       -6.6683542070
 C         4.1240752315       -6.0332374929       -5.3123728212
 C         3.6636442173       -4.6250797378       -5.7255144143
 C         2.1724212200       -4.6145344253       -6.3104095118
 O         1.6302272629       -5.6423047931       -6.6991917371
 C         1.4137759907       -3.1807432259       -6.4130205643
 C         0.0180402995       -3.4515481515       -5.8655724003
 O        -0.0955033323       -3.7154944313       -4.6861529417
 C        -1.2863359113       -3.2526025065       -6.7153273470
 C        -1.8625056688       -1.9209949243       -6.2242339837
 C        -3.4466195683       -1.9953971520       -6.4022359983
 O        -3.9134376047       -2.9203339508       -6.9827643399
 C        -4.3779271978       -0.9113564991       -5.7679802846
 C        -5.1010517217       -0.2087658598       -6.9841770848
 O        -4.5792481267        0.7786032131       -7.3978580480
 C        -6.3023096089       -0.9537545260       -7.7932144504
 C        -6.1332275959       -0.8529243688       -9.2932142741
 C        -7.0576340730        0.2587107523       -9.9281540437
 O        -8.0548131088        0.7370916788       -9.4596397276
 C        -6.6421955669        0.8215399748      -11.4017527359
 C        -7.5248848433        0.2164602930      -12.4924244037
 O        -7.2225607257       -0.8254181545      -13.0787646417
 C        -8.8420229864        0.8705556982      -12.8446301237
 C        -9.8385278669       -0.0488469351      -13.5059857760
 C       -11.0476614744        0.5979639059      -13.8796432374
 O       -11.3069318172        1.7529177730      -13.3838091790
 C       -11.9424998174        0.0727235683      -15.0489919418
 C       -13.5061273120        0.3654064827      -14.6780759610
 O       -14.0418244239        1.4216365549      -14.8057200351
 C       -14.3786991490       -0.8935173090      -14.0704117718
 C       -15.6211517487       -0.4991138972      -13.2264020178
 C       -15.1147671151       -0.2213821968      -11.8048547490
 O       -13.9789608609       -0.6156552004      -11.4458108779
 C       -15.8766925195        0.6983750670      -10.8057614278
 C       -15.0464339054        2.1196701130      -10.8347119162
 O       -14.8863179800        2.6959295032      -11.8921786927
 C       -14.3341972610        2.6504796174       -9.5559006938
 C       -13.5146968673        3.9136740652       -9.7794714517
 C       -14.3374621707        5.1774475322       -9.8055598150
 O       -15.3854097546        5.2528365267       -9.2231265615
 C       -13.8674633259        6.4695280600      -10.6254689474
 C       -13.6668204951        6.0418030571      -12.1058633214
 O       -12.8559429938        5.1443387041      -12.3710974943
 C       -14.6431402267        6.5697866084      -13.3006104163
 C       -14.7554800897        5.4768584162      -14.3649345753
 C       -13.5620742022        5.3967457384      -15.3683300275
 O       -12.9388738389        4.3365949640      -15.4797950638
 C       -13.3682479438        6.3747440124      -16.5871344564
 C       -14.4125838550        5.9427826210      -17.7649181687
 O       -15.1786395535        5.0429640109      -17.5639296148
 C       -14.3933799472        6.6289207878      -19.1582248642
 C       -15.6644073591        6.0986877193      -19.9516433593
 C       -15.8383642398        6.7927773540      -21.2970759131
 O       -15.0359749154        7.6312779282      -21.8042148950
 C       -17.0733619239        6.3337695258      -22.1358216108
 C       -18.2426879191        7.3078183356      -21.6688026892
 O       -18.1274449355        7.9592909082      -20.6778526141
 C       -19.6417428330        7.1012976592      -22.2687348646
 C       -16.8037167440        6.5191415408      -23.7216197250
 C       -17.7989777518        4.9745650298      -21.7616312680
 C       -13.4713235825        7.8874361034      -16.2175477851
 C       -11.8308386364        6.1481606897      -17.0934210636
 C       -14.9287871290        7.6401919743      -10.4440748080
 C       -12.4937932125        6.9620840669      -10.0709681164
 C       -17.3984574014        0.9927706537      -11.0851048285
 C       -15.8105290297        0.0661048703       -9.3988502459
 C       -11.4647061617        1.0317741214      -16.3078633513
 C       -11.6698864140       -1.4001732263      -15.3817664866
 C        -6.6905874606        2.3081895550      -11.3415876792
 C        -5.2027889704        0.4511657727      -11.9089341918
 C        -5.4844927819       -1.5362636122       -4.8355275496
 C        -3.7283802055        0.0465300018       -4.8378505479
 C         2.1835910858       -2.0317179005       -5.7254048461
 C         1.5014772677       -2.8365109435       -7.9171076209
 C         5.8461311318       -7.5943251677       -3.3416921985
 C         7.2259461912       -5.4034774343       -3.7967810383
 C         9.8905969327      -12.6939207033       -5.4729374585
 C         9.3573172661      -12.3213451435       -3.0907450262
 C        15.5739176490       -8.1825718868       -2.2324144888
 C        13.8481637926       -6.3173962838       -2.3742599075
 C        13.4569040564       -8.3943898539       -7.9328614210
 C        13.8590469082       -6.4454892600       -9.6746271298
 H        10.4929533919       -5.1791752483       -9.5285749577
 H         9.7582816304       -6.6159641790      -10.1606768710
 H        11.3825922082       -6.2281602673      -10.7942525317
 H        15.1194466655       -5.0073379867       -7.1843009095
 H        15.4562692046       -6.6346136883       -7.0854297507
 H        13.8507003309       -5.4592171824       -4.8356906406
 H        15.6926360268       -5.2650575434       -4.7504153580
 H        13.8386320410      -10.3315016696       -2.2702134035
 H        13.7629281177      -10.3493705418       -4.0483238179
 H        11.2406570749      -10.3229892875       -2.4707325578
 H        12.0269849767      -11.9151977116       -2.8390154907
 H         7.5416485678      -10.6118537757       -6.5973516638
 H         9.1980731064       -9.9788457405       -6.8485684256
 H         6.5752794518       -8.7628898919       -6.2578888268
 H         7.9380573942       -7.9565124785       -7.1041019192
 H         3.8248197817       -6.1144860890       -4.2465926201
 H         3.5780638652       -6.8255869977       -5.7846033672
 H         4.3241547297       -4.3446476440       -6.5273728250
 H         3.8208690775       -3.9908494310       -4.8472747914
 H        -1.9758505463       -4.1432599698       -6.5914497277
 H        -1.1621551411       -3.3283725435       -7.8448155951
 H        -1.3794150941       -1.1160362525       -6.8524654528
 H        -1.7220677826       -1.7144135186       -5.1720199487
 H        -7.2523161022       -0.3432257638       -7.5451585490
 H        -6.3413041939       -1.9533111166       -7.4387203350
 H        -6.3757619589       -1.7544645587       -9.8996564186
 H        -5.1043222596       -0.6195324342       -9.5282907439
 H        -8.5708251139        1.7920361991      -13.3285953220
 H        -9.2391019633        1.1412962918      -11.8564146318
 H        -9.9388260376       -0.9280834412      -12.7648639567
 H        -9.5178734950       -0.5782993338      -14.3878915790
 H       -13.7241308735       -1.5093498511      -13.4461741314
 H       -14.6775820719       -1.4986828844      -14.9336526416
 H       -16.3241394877       -1.3487784638      -13.1664667015
 H       -16.2907704768        0.4228737744      -13.4973976108
 H       -13.8191728657        1.6995313443       -9.2390997552
 H       -14.9240869580        2.7033262115       -8.6060490487
 H       -12.9979358135        3.7783467148      -10.7168536336
 H       -12.8213477178        4.0469649177       -9.0300879865
 H       -14.2777622372        7.5201744632      -13.7351237231
 H       -15.6828769620        6.6519366018      -12.9156581330
 H       -15.6192229361        5.6020348209      -15.0605269205
 H       -15.0519887939        4.4890555335      -14.0208480718
 H       -13.3723459914        6.4265236602      -19.4617001625
 H       -14.4597273607        7.7227592204      -19.0169301382
 H       -16.5385355818        6.3959701598      -19.3838719283
 H       -15.7150920281        5.0088861942      -19.8456350161
 H       -20.0981476788        8.0123456791      -22.6311284300
 H       -20.3454987877        6.8860339917      -21.4501108154
 H       -19.5769685311        6.3655369899      -23.0964727893
 H       -16.9098226079        5.6354705428      -24.3340657183
 H       -15.7751681678        6.7668684005      -23.8810928990
 H       -17.4538076404        7.2394914340      -24.2239547270
 H       -18.5077938754        5.2913945441      -20.9268485996
 H       -17.0992720945        4.2675030738      -21.3538281300
 H       -18.2109147648        4.6456650442      -22.6937282904
 H       -12.7672178834        8.5903229493      -16.7731001529
 H       -13.1674316651        7.9409103503      -15.1619126442
 H       -14.4671670865        8.4088588755      -16.2135299402
 H       -11.7257653830        5.1702308637      -17.6014457400
 H       -11.1539501943        6.1772488408      -16.1876072264
 H       -11.6173093351        6.9136449731      -17.8188842782
 H       -15.0564201966        7.6676718179       -9.3349219511
 H       -15.8218014703        7.6422186400      -10.9998197537
 H       -14.4644392464        8.5704208927      -10.7611212838
 H       -11.7607466716        6.1921101851       -9.8738619149
 H       -12.5850255611        7.3594352477       -9.0590617417
 H       -12.0998593304        7.7922321901      -10.7312054863
 H       -17.6830605743        1.8910895473      -10.4608239561
 H       -17.9608481158        0.1891531070      -10.8516870547
 H       -17.6346779377        1.2943464642      -12.1152411932
 H       -16.5078839414       -0.8169578875       -9.3759655739
 H       -16.1935344370        0.8345033267       -8.7035862333
 H       -14.7948698121       -0.1562726059       -9.3796299591
 H       -11.8327546818        2.0637783115      -16.1515945019
 H       -11.8044134247        0.4370930198      -17.2432141084
 H       -10.4121656189        1.0437337468      -16.4255094544
 H       -10.5898208696       -1.6414849653      -15.4454980952
 H       -12.0973789348       -1.5496736490      -16.3697104735
 H       -12.1627565040       -2.0537250683      -14.5831225105
 H        -6.2066701793        2.6591756458      -12.1533166305
 H        -6.1326585056        2.6166930770      -10.4574337715
 H        -7.6419055540        2.8268583702      -11.3189748766
 H        -5.0313821415        0.8712216566      -12.9746784844
 H        -4.9209559452       -0.5767562242      -11.7522683014
 H        -4.4566612611        0.8192612133      -11.1967917685
 H        -6.0050841174       -2.3585577425       -5.2409254225
 H        -6.1350340247       -0.7503690775       -4.5046625785
 H        -4.9967788727       -1.8400241333       -3.8695255904
 H        -4.5053888408        0.4783369506       -4.3043596331
 H        -3.1505264006        0.7923948324       -5.3670684854
 H        -2.9883112605       -0.5001848034       -4.2150178617
 H         1.5745264000       -1.0962188439       -5.7540249327
 H         3.1856254837       -1.8416683867       -6.1347610625
 H         2.2951591452       -2.3057977429       -4.7233442416
 H         2.6215071878       -2.7045732134       -8.2606422827
 H         0.8616923243       -1.9792934248       -8.2166795922
 H         1.0399845151       -3.5931470587       -8.5664387931
 H         6.4705975010       -7.7830746969       -2.4643330354
 H         5.3911887873       -8.5055870983       -3.7524808358
 H         4.9922718276       -7.0746134711       -3.0862093926
 H         7.8560684936       -4.8942360726       -4.4452249926
 H         7.8049986693       -5.2982584842       -2.8769242537
 H         6.3950021836       -4.7500137510       -3.6373211632
 H        10.6295149626      -13.3865619793       -5.2085825895
 H        10.3087644257      -12.1190599886       -6.3455966537
 H         9.0269289705      -13.1982809370       -5.8538792365
 H         9.4408416503      -13.4159305488       -3.1317411209
 H         8.3153188185      -12.3042437612       -2.7904480620
 H         9.9365914505      -11.9458229544       -2.2732503793
 H        16.4809778268       -7.6640563567       -2.4162913360
 H        15.6760861194       -9.2356362715       -2.4219966980
 H        15.3831462106       -8.1890036330       -1.1095279078
 H        13.5130079604       -6.4797143853       -1.3360392065
 H        12.9400934013       -6.0021072753       -2.8192487384
 H        14.5290587578       -5.4306195689       -2.3775116179
 H        13.9986485915       -8.4471539700       -6.9885898108
 H        14.3555756330       -8.6066157059       -8.5600863523
 H        12.6465615792       -9.1225050631       -8.1243035799
 H        14.9693147557       -6.6820017509       -9.5617130375
 H        13.9020753742       -5.3715015851       -9.8381503377
 H        13.6226589725       -7.0502781584      -10.5290854109
 Na       11.2007602024       -7.5466259078       -5.7927429668
 Na      -13.0520576552        3.2637106864      -13.5796929711
