232

 C        11.2576807299       -6.0639255945       -9.9389166734
 C        11.7762363363       -7.0069094388       -8.9194542748
 O        11.1242419192       -7.7185750470       -8.1959882049
 C        13.3382264312       -6.8937502006       -8.5250992089
 C        13.4282385117       -6.2794712295       -7.0996546388
 O        12.4225783238       -6.1679593276       -6.4307620255
 C        14.7370464385       -5.6846590376       -6.6036113293
 C        14.7673722163       -5.7522681192       -5.0325392160
 C        14.8122280220       -7.1742765876       -4.5531082839
 O        15.1693767929       -8.0430505869       -5.3359828520
 C        14.3226722292       -7.5179004375       -3.1728690542
 C        12.9641007425       -8.3566898862       -3.2934742530
 O        11.9197709590       -7.7299097678       -3.2794769938
 C        13.1117080280       -9.8885704054       -3.1342276342
 C        11.8389764608      -10.6394101487       -3.0452808131
 C        10.9944614720      -10.6309151657       -4.3619881723
 O        11.4766388457      -10.0116020065       -5.3078059731
 C         9.6420393922      -11.4847317554       -4.6793384615
 C         8.4111072035      -10.5045679580       -4.8300582990
 O         7.5395837733      -10.5405568721       -3.9357187125
 C         8.3234362954       -9.7410122780       -6.0442559842
 C         7.3143088798       -8.5699629389       -6.0705965002
 C         7.7825324801       -7.4661696369       -5.1380725569
 O         8.9176387432       -7.0049189219       -5.0065522424
 C         6.6037790774       -6.7534268365       -4.2540045811
 C         5.7830667887       -6.1788216195       -5.4350438527
 O         6.3718553225       -5.7722559424       -6.4835068595
 C         4.2953383617       -5.9584937061       -5.2429678404
 C         3.7897137989       -4.5863280181       -5.6829083953
 C         2.3900988272       -4.5613377115       -6.3030170253
 O         1.8548751859       -5.5966982920       -6.6702773065
 C         1.6589976626       -3.1583582067       -6.5340811199
 C         0.2397405096       -3.1302502451       -5.7964688649
 O         0.1363565966       -3.0658348951       -4.6042517322
 C        -1.0948953524       -3.1077000023       -6.6331794899
 C        -1.9881795831       -1.9981942230       -6.0939596711
 C        -3.4960683622       -2.1600935283       -6.2655112183
 O        -3.9036624125       -3.0525303453       -6.9929853428
 C        -4.5176131356       -0.9619276922       -5.9206309636
 C        -5.0126375645       -0.3003348206       -7.3167273195
 O        -4.4500732925        0.5765693621       -7.9505573690
 C        -6.2395504668       -1.0151205976       -7.9392612527
 C        -6.2656321364       -1.0431177407       -9.4935834229
 C        -6.9818512630        0.1887274372      -10.0785271651
 O        -7.9710843978        0.6236407389       -9.5128761273
 C        -6.5908347670        0.7092950308      -11.4687190066
 C        -7.5777340941       -0.2703129060      -12.3298066967
 O        -7.2804267966       -1.4741060748      -12.4218862244
 C        -8.9546751673        0.4213522375      -12.8198150412
 C        -9.9366474320       -0.4388025674      -13.4979567621
 C       -11.1923996752        0.3179372165      -13.7690512995
 O       -11.6152383580        1.2127668293      -12.9560505860
 C       -12.2437545708       -0.0494758749      -14.9782119709
 C       -13.7024488035        0.0932694908      -14.4479854103
 O       -14.2594904370        1.1477662839      -14.4313979802
 C       -14.4310467199       -1.0754544126      -13.7606744613
 C       -15.4786095892       -0.4698758856      -12.8602233210
 C       -14.9061612496       -0.0665367582      -11.5052403776
 O       -13.8378325313       -0.5272698436      -11.1032054621
 C       -15.7916890234        0.8933249386      -10.6555712934
 C       -15.0231590953        2.2763539263      -10.7337413881
 O       -15.0315215310        2.8379101310      -11.8154490812
 C       -14.1933985158        2.6828864427       -9.5844727843
 C       -13.3602844021        3.9995390135       -9.9544370548
 C       -14.1692603766        5.3069598654       -9.8540142436
 O       -14.9987443915        5.4824613362       -9.0132778852
 C       -13.8065640490        6.4569580990      -10.8720259015
 C       -13.7025968627        5.8663804292      -12.2933489211
 O       -12.7359864287        5.1930511080      -12.6647380459
 C       -14.8087908738        6.2263310884      -13.2913393464
 C       -14.9280113787        5.3052540105      -14.5331987406
 C       -13.6051607134        5.3779155921      -15.3922762692
 O       -12.6830088379        4.5899835152      -15.2002320410
 C       -13.4915651432        6.3994233263      -16.6075972041
 C       -14.5136646178        5.9477932081      -17.8259601933
 O       -14.8420721390        4.7765075778      -17.8925135313
 C       -14.6886183721        7.0065682336      -18.9474842411
 C       -16.0501927734        6.7643939638      -19.6651946876
 C       -15.8626585217        6.8921890420      -21.2129359752
 O       -14.8073135185        7.2969518890      -21.6949296149
 C       -17.1794216758        6.5889584981      -22.0953798149
 C       -18.3055941854        7.4176513277      -21.4085892417
 O       -18.1405605348        8.2996941959      -20.5981698795
 C       -19.6705585519        7.2523719585      -22.2164484553
 C       -17.1252607883        7.3464232490      -23.4770212737
 C       -17.4294824886        5.1141508495      -22.1819853191
 C       -13.5698350415        7.8262303743      -16.1171590079
 C       -12.1657213381        6.2086451986      -17.2909275302
 C       -14.8199781788        7.5937458279      -10.7925069637
 C       -12.4661098038        6.9314848764      -10.2928402552
 C       -17.1589875604        0.8809713280      -11.2518363396
 C       -15.9424372400        0.3867242957       -9.1230976267
 C       -12.1181447041        0.8985369284      -16.1738885759
 C       -11.9243715390       -1.5525168634      -15.4734487281
 C        -6.9051359129        2.2395243343      -11.5555919514
 C        -5.0760524649        0.5252569064      -11.8389421884
 C        -5.6655591837       -1.5536630900       -5.1247367955
 C        -3.7920900037        0.1654479521       -5.0029644297
 C         2.3879869459       -1.9210554109       -5.9447080763
 C         1.6377834128       -3.0565608382       -8.0045935590
 C         5.8133160689       -7.7929049033       -3.3796751771
 C         7.1818418891       -5.5048184988       -3.4617706410
 C         9.8610452830      -12.1579309508       -6.1277367424
 C         9.4609781936      -12.4606658091       -3.4701491143
 C        15.4219549157       -8.3410941431       -2.3499928987
 C        13.9404329003       -6.3493875975       -2.3715700664
 C        14.0955278561       -8.3053043213       -8.4044892578
 C        14.2034401856       -6.0457639935       -9.5192833898
 H        11.6768785854       -5.0372967002       -9.8226055906
 H        10.2340934535       -5.8797634721       -9.7835701953
 H        11.4840410110       -6.4437260996      -10.9505814013
 H        15.0546823887       -4.7412502879       -6.9181916740
 H        15.4941426378       -6.3081817892       -7.0538126911
 H        13.8494907832       -5.2842260481       -4.5256055512
 H        15.5904912633       -5.1030947908       -4.6791177002
 H        13.5813060664      -10.1127637987       -2.2144685904
 H        13.7909213653      -10.2059002836       -3.9661823969
 H        11.2991929688      -10.2550931305       -2.1608130742
 H        12.1355746709      -11.7033861920       -2.8382937137
 H         8.1574559527      -10.4731854288       -6.8898086067
 H         9.3144859228       -9.2187528846       -6.2068328457
 H         6.3480094022       -8.8695532423       -5.6923018822
 H         7.3620108611       -8.1076735247       -7.0841752091
 H         4.0745611394       -6.1526973263       -4.1460588570
 H         3.6773998016       -6.7416815695       -5.7583586158
 H         4.5221343107       -4.1798250908       -6.4090192323
 H         3.7566836256       -3.8215379930       -4.8883649042
 H        -1.5496612678       -4.0984739001       -6.5024783840
 H        -0.9087226053       -3.0658438520       -7.7614363133
 H        -1.8754018965       -1.0758880444       -6.6897926684
 H        -1.8446668058       -1.7639557404       -5.0765996368
 H        -7.1289538437       -0.4512637871       -7.6161293275
 H        -6.2274611343       -2.0294082920       -7.6330200368
 H        -6.8243286661       -1.9799503564       -9.6887932932
 H        -5.2826174999       -1.1523618732       -9.9884727631
 H        -8.8087220237        1.3484999103      -13.3980270762
 H        -9.3787440865        0.6617399766      -11.8055669142
 H       -10.2524741932       -1.3811429036      -13.0095843840
 H        -9.5083879493       -0.8508251275      -14.3848089515
 H       -13.6940748531       -1.6804279678      -13.2979855657
 H       -14.9579909830       -1.6089514459      -14.5305041356
 H       -16.3106980791       -1.1087663313      -12.6503400921
 H       -16.0058868724        0.4312316932      -13.3237058920
 H       -13.7010497194        1.8196714086       -9.1723202636
 H       -14.8507938539        2.7829330584       -8.6883696422
 H       -12.7839898366        3.8288539904      -10.8353924428
 H       -12.5931601412        3.9978522472       -9.2562186976
 H       -14.7604241609        7.3225247292      -13.5267769783
 H       -15.7872960027        6.1279301518      -12.7549321639
 H       -15.8686248934        5.4057054282      -15.1025672936
 H       -14.8817761840        4.2586959429      -14.2167595365
 H       -13.9803619616        6.5723497194      -19.6368605354
 H       -14.4455875615        8.0465302673      -18.7679942870
 H       -16.7932025006        7.3985850608      -19.2499519961
 H       -16.3608276118        5.7242166085      -19.4785390552
 H       -19.6754225326        7.7365565891      -23.2077583770
 H       -20.5899669398        7.5711615826      -21.6922092148
 H       -19.7945455985        6.1562542977      -22.4901078210
 H       -16.1602697707        7.7040512824      -23.6591166717
 H       -17.7514693993        8.2623452355      -23.4706585146
 H       -17.4111314916        6.7013002765      -24.3310901789
 H       -17.0952623764        4.5702605605      -21.2764993378
 H       -16.9371898445        4.8676171627      -23.1493165606
 H       -18.5854492648        5.0027807972      -22.2084191074
 H       -13.3186313978        8.4990121222      -16.9459720338
 H       -12.8092586680        8.0834193515      -15.4497125650
 H       -14.5404985275        8.1902307753      -15.8581029900
 H       -12.1135491612        5.1080428815      -17.3957045318
 H       -11.2993698171        6.7487132059      -16.8772164326
 H       -12.2063057467        6.6333164801      -18.2600082500
 H       -14.7171633086        8.1716326916       -9.8705425144
 H       -15.8477835780        7.2245614143      -10.7342254731
 H       -14.7933426273        8.2685703490      -11.6885158689
 H       -11.6883387716        6.3006799646      -10.6797308544
 H       -12.4685384908        7.0205064493       -9.1985677607
 H       -12.1235731852        7.9393258956      -10.6226468668
 H       -17.8236471505        1.3111117987      -10.4965874462
 H       -17.5340674637       -0.0688072959      -11.4305422819
 H       -17.2868624291        1.3975323697      -12.2478936422
 H       -16.6462803491       -0.4490883559       -9.0623703626
 H       -16.4677173662        1.1374271251       -8.5765649993
 H       -14.9426941771        0.1095075271       -8.8312822321
 H       -12.0218004673        1.8744375610      -15.6941279252
 H       -12.9420444675        0.8174552398      -16.9457965745
 H       -11.1522018805        0.7614890739      -16.6915152632
 H       -11.2103664693       -1.4215197429      -16.3165822356
 H       -12.8572602244       -1.9996616237      -15.8282487304
 H       -11.5089360376       -2.2849737588      -14.8234006735
 H        -7.1388743530        2.4749591492      -12.5854883753
 H        -6.0307420493        2.8408229949      -11.3885118385
 H        -7.7861694021        2.6973743790      -10.9886224243
 H        -4.7556468818        0.9474429550      -12.8799751304
 H        -4.9106127379       -0.5486140290      -11.9239720729
 H        -4.3105615599        0.9150001945      -11.1804398555
 H        -6.0202225627       -2.4163049112       -5.5833200856
 H        -6.4434377899       -0.8831913668       -4.8695041278
 H        -5.2006280848       -1.9786579257       -4.2387661464
 H        -4.5586997894        0.9878792124       -4.8907841809
 H        -2.8633755602        0.5107629900       -5.4034218857
 H        -3.6072493534       -0.3232747027       -3.9779638920
 H         1.8018228086       -0.9759900306       -6.1259333882
 H         3.3467601977       -1.8332301847       -6.5490689694
 H         2.7246780318       -2.1352392463       -4.9510081208
 H         2.6314482185       -2.6939171123       -8.3698892924
 H         0.8937222238       -2.2903905653       -8.3513087416
 H         1.6544318307       -3.9701617959       -8.5425386357
 H         6.6250884513       -8.3396578127       -2.7877347509
 H         5.2134088453       -8.4695580395       -3.9377895727
 H         5.1691211686       -7.3766045179       -2.5750067353
 H         7.4308650591       -4.7310187198       -4.1556481015
 H         8.0991245993       -5.6567522751       -2.8644060080
 H         6.5689338659       -4.9530097776       -2.7228610173
 H        10.5708114520      -12.9617133729       -6.1602302595
 H        10.3220192421      -11.3247046952       -6.7398834745
 H         8.9878136044      -12.4746801614       -6.6096784304
 H        10.3606998123      -12.4491468575       -2.8585509127
 H         9.3877543529      -13.5260549211       -3.6508801640
 H         8.6809419551      -12.2279326062       -2.7802720538
 H        16.1470973275       -7.5992944764       -2.0114691707
 H        15.9809976483       -9.1414003610       -2.9063624059
 H        14.9000661117       -8.8231663468       -1.4528411071
 H        13.7912292594       -6.7470877613       -1.3472699098
 H        12.9953624306       -5.8937487036       -2.5521430262
 H        14.7056314138       -5.5454905151       -2.4524222276
 H        15.0929025664       -8.2608558339       -8.8123729889
 H        13.5212237801       -9.1561029781       -8.7220007743
 H        14.1493653075       -8.5221385488       -7.3519663057
 H        15.2916329802       -5.9286951772       -9.2384998723
 H        13.7932361747       -5.0514154158       -9.4062475176
 H        14.2050002971       -6.2966198873      -10.5670797286
 Na       11.1607986350       -7.6998152138       -5.8092198315
 Na      -13.2087704421        2.9629186614      -13.4031559840
