232

 C        11.2747261879       -6.1623595612      -10.0073283242
 C        11.9146455757       -7.0085243796       -8.8797137996
 O        11.1831075507       -7.7604177590       -8.3131357512
 C        13.4301116440       -6.8137635996       -8.4797841403
 C        13.5390082814       -6.3098155908       -7.0631109550
 O        12.5913453592       -6.2874604972       -6.2866198280
 C        14.7867793899       -5.6205761403       -6.5774110797
 C        14.7459925020       -5.6956749715       -5.0247217475
 C        14.7393025752       -7.2207790400       -4.5649062071
 O        15.1437335879       -8.0660815032       -5.3488043536
 C        14.2879881943       -7.4487573444       -3.0721447981
 C        12.9195618186       -8.2896060438       -3.1793083635
 O        11.8686603603       -7.7667700966       -3.2790981440
 C        13.0615013976       -9.8536385479       -3.0401907729
 C        11.7036049714      -10.6333588073       -3.1828221204
 C        11.0353525731      -10.6237418941       -4.5217167502
 O        11.5032625242      -10.0164614030       -5.5279984231
 C         9.7932997375      -11.4374690537       -4.6963501365
 C         8.3448719476      -10.6125038189       -4.8557118346
 O         7.4731870754      -10.6329681265       -4.0249676529
 C         8.3100091496       -9.7239880561       -6.1750172576
 C         7.3185381020       -8.4880228357       -6.0037592377
 C         7.7226287089       -7.3810990687       -5.0427352268
 O         8.8333701640       -6.9495570642       -5.0649953158
 C         6.5913414737       -6.7467237707       -4.2266987688
 C         5.7352917718       -6.0716721235       -5.3944574334
 O         6.2966110717       -5.7032353909       -6.4149148840
 C         4.1847770977       -5.8662807771       -5.2406264747
 C         3.7942657631       -4.4798637584       -5.6235700571
 C         2.3692398800       -4.4775637487       -6.2257258651
 O         1.8813697699       -5.5078309403       -6.5958740358
 C         1.6698566351       -3.1570157721       -6.5401050213
 C         0.2228962891       -3.1566465491       -5.7962746967
 O         0.2160500005       -2.9052281379       -4.6146933488
 C        -1.0565266321       -3.1061215692       -6.5747054187
 C        -1.8726780260       -1.9984371618       -6.0074152783
 C        -3.3817659398       -2.0915185159       -6.3559692663
 O        -3.8369755924       -3.1022677996       -6.9055069509
 C        -4.4519681336       -1.0711406113       -5.9640225743
 C        -4.9454422480       -0.5133097108       -7.3711584573
 O        -4.4518079470        0.4711288736       -7.8896680305
 C        -6.2408226723       -1.2231697638       -7.9407421351
 C        -6.3080586371       -1.1259136308       -9.5045122107
 C        -6.9377382113        0.2488706018      -10.0689149704
 O        -7.9350438283        0.6880115508       -9.5721950468
 C        -6.6340225939        0.6772926687      -11.6263401601
 C        -7.5881674569       -0.2565440551      -12.2549439250
 O        -7.4015213671       -1.4357197448      -12.3816117454
 C        -8.9799636744        0.3388147864      -12.7518136738
 C        -9.9583337143       -0.5368574845      -13.5583397679
 C       -11.3070978299        0.2073973664      -13.6701968982
 O       -11.5403915710        1.1556841624      -12.9518848711
 C       -12.2584623914       -0.0827479645      -14.9136009085
 C       -13.7500633314        0.0824990614      -14.3316575015
 O       -14.2051998034        1.1718766725      -14.4887095661
 C       -14.3905834046       -1.1365554183      -13.6984954542
 C       -15.5351120532       -0.7842766005      -12.7961209916
 C       -14.9294608287       -0.1623142590      -11.4190317311
 O       -13.8781220706       -0.5107922744      -11.0291387895
 C       -15.7980085999        0.8832508721      -10.6071281541
 C       -14.9569396370        2.2748988099      -10.6181602460
 O       -15.1055149175        2.9128887067      -11.6465333665
 C       -14.0037113951        2.7622498388       -9.4899047096
 C       -13.2550129086        4.0484725779       -9.9180412514
 C       -14.1661616087        5.2786860872       -9.9517627787
 O       -14.9413867784        5.5385874044       -9.0586563482
 C       -13.7946724941        6.5032892555      -10.9705420215
 C       -13.7224202022        5.9661199206      -12.3914358540
 O       -12.8603490159        5.1570334211      -12.6273556077
 C       -14.8889718097        6.2012997209      -13.3844787043
 C       -14.9013514862        5.2450932679      -14.5327728853
 C       -13.5647356804        5.3299590542      -15.4093329465
 O       -12.6054528510        4.6323247733      -15.1507118907
 C       -13.5219033800        6.3264757495      -16.6157293661
 C       -14.4643853542        6.0149639289      -17.7840073854
 O       -14.8434015293        4.8605239087      -17.8411549613
 C       -14.6196000430        6.9708441705      -18.8618387157
 C       -16.0855051120        6.7702111299      -19.6700640452
 C       -15.8855038709        6.9759286020      -21.1740445918
 O       -14.8405639871        7.1205135551      -21.6794534241
 C       -17.2037713365        6.8243501557      -22.1144773666
 C       -18.4447626150        7.4975311303      -21.5103917160
 O       -18.3858373725        8.3106749876      -20.5892668362
 C       -19.8586492482        7.2587536264      -22.0507373488
 C       -16.8531315567        7.5009595886      -23.4874040731
 C       -17.4321042650        5.2750155578      -22.3313338526
 C       -13.6466107011        7.7705446821      -16.0035765304
 C       -12.0623015060        6.1126645711      -17.1967890726
 C       -14.8061694270        7.6467204757      -10.8180720298
 C       -12.3717892485        6.8714529973      -10.4796093411
 C       -17.2044199451        1.0339321755      -11.2102332036
 C       -16.0183044861        0.3465067432       -9.1215584066
 C       -12.1781796831        0.8892274089      -16.0504518242
 C       -11.9715956659       -1.5789237428      -15.4076241733
 C        -6.9927558679        2.1649501412      -11.6652449370
 C        -5.1955493470        0.4207818336      -11.9506698093
 C        -5.6588063464       -1.4797214835       -5.1976806679
 C        -3.7951764643        0.1788020708       -5.1075881548
 C         2.4866642318       -1.8849503238       -6.0320623384
 C         1.5530001392       -3.0895076240       -8.1288005351
 C         5.8037753088       -7.6545945028       -3.3819795237
 C         7.1221212300       -5.6475539890       -3.3992409541
 C         9.9703886055      -12.1374186933       -6.0505727564
 C         9.5296320024      -12.5323023684       -3.6074221008
 C        15.3789262671       -8.3915303899       -2.3611575215
 C        14.1143088370       -6.1718277645       -2.2801638932
 C        14.0935325884       -8.2607636948       -8.4409511143
 C        14.2670123532       -5.8863593651       -9.4417302637
 H        11.5743321772       -5.0425446273      -10.0824108968
 H        10.1765788181       -6.1018385420       -9.8696378267
 H        11.5768354309       -6.6672202812      -10.9513150891
 H        14.9577863021       -4.6370214574       -6.8703280130
 H        15.6418922914       -6.1005971120       -7.0467969834
 H        13.8227596110       -5.1931259559       -4.6281014511
 H        15.5507212501       -5.0513797907       -4.5984889716
 H        13.3701934574      -10.0964089226       -1.9961064673
 H        13.8310562754      -10.2335872872       -3.7104839213
 H        10.9709574262      -10.4133909245       -2.3639373201
 H        11.9417221690      -11.6670161863       -3.0434085381
 H         7.9592748565      -10.3204568262       -6.9588995982
 H         9.3741890608       -9.3629325647       -6.4293605842
 H         6.4073052892       -8.9351349787       -5.5938259993
 H         7.1927939164       -7.9966892001       -6.9353455730
 H         3.7426596757       -6.1643365944       -4.3159176203
 H         3.7251116829       -6.5333305121       -6.0038260640
 H         4.4729738768       -4.1786307497       -6.4170931226
 H         3.9416855239       -3.6821299317       -4.8820208603
 H        -1.5555168620       -4.1353072657       -6.5423529971
 H        -0.8048065734       -2.9542733744       -7.6814803449
 H        -1.4608352091       -1.0095444707       -6.2393885044
 H        -2.0021694371       -2.1324882986       -4.8914058114
 H        -7.1075557226       -0.7120963166       -7.5061214188
 H        -6.1739869762       -2.3697484348       -7.7185685751
 H        -6.9657474282       -1.9128447294       -9.7429823149
 H        -5.3414346113       -1.3635151250      -10.0619620007
 H        -8.8214283688        1.2397881737      -13.3215497640
 H        -9.5459067149        0.6020472517      -11.8485752200
 H       -10.1387952302       -1.5565158195      -13.2410920508
 H        -9.5330771840       -0.7829136047      -14.6143618939
 H       -13.5462209580       -1.5848242851      -13.2182903793
 H       -14.7336337377       -1.7652924312      -14.5539681199
 H       -16.1788614070       -1.6763019304      -12.4995620247
 H       -16.2991509894       -0.1255728633      -13.2602834139
 H       -13.4144385622        1.9632884251       -9.1460492051
 H       -14.6304743377        2.8168129178       -8.4917725579
 H       -12.8095841763        3.8449435514      -10.8446381448
 H       -12.3859591570        4.0982009998       -9.3368280650
 H       -14.8216971495        7.2450989561      -13.8002374614
 H       -15.8769963090        6.2224847677      -12.9137015155
 H       -15.7402586155        5.5204197606      -15.1895089951
 H       -15.0344446575        4.1425792289      -14.2542735918
 H       -13.7894490077        7.0552552967      -19.5836359886
 H       -14.7946034277        7.9119189455      -18.4047711145
 H       -16.7110912701        7.4867472993      -19.1420897916
 H       -16.5835134473        5.7940538182      -19.6651637314
 H       -20.0240591074        7.6572045780      -23.1042727292
 H       -20.6346785618        7.6452689745      -21.3502558689
 H       -20.0684141598        6.1830780326      -22.1426408286
 H       -15.7944065651        7.6353915744      -23.5112716333
 H       -17.3959005799        8.4201885757      -23.8226556330
 H       -17.0168138984        6.7236627973      -24.2201469927
 H       -17.1109077925        4.7436245731      -21.4874931662
 H       -16.9316705274        5.0347619139      -23.2935286663
 H       -18.5384775357        5.1281469037      -22.3304039458
 H       -13.1875269623        8.5554757042      -16.5918046165
 H       -13.0699048994        7.9055771002      -15.0655415200
 H       -14.6806881138        8.0981907282      -15.9683536038
 H       -11.9847184081        5.0545807785      -17.5115024105
 H       -11.2745787493        6.5614262457      -16.6452911541
 H       -12.0325674812        6.7714804394      -18.0904577498
 H       -14.9808410937        8.0145421715       -9.8529537046
 H       -15.8219687966        7.2411609522      -11.1106157096
 H       -14.5936616935        8.4866376996      -11.5127963606
 H       -11.6076112959        6.1436685084      -10.8205687090
 H       -12.3945611928        7.1157872079       -9.3947179644
 H       -11.9640268298        7.7780774977      -10.8915812562
 H       -17.8061479588        1.5647577618      -10.5891631242
 H       -17.7817883259        0.0175539638      -11.3537690235
 H       -17.2287893307        1.4338850824      -12.2056447827
 H       -16.6418033021       -0.5300535309       -9.1794730063
 H       -16.6033230764        1.0717991206       -8.5903077811
 H       -14.9878333198        0.0467889352       -8.7241514013
 H       -12.2802265813        1.9066367969      -15.6304363518
 H       -12.9184777434        0.6526654037      -16.7821430027
 H       -11.1200193909        0.8563950204      -16.5612742603
 H       -11.1072403391       -1.5123016306      -16.1155455361
 H       -12.8867064397       -2.0235029739      -15.9258769190
 H       -11.7248783874       -2.3215249255      -14.6834891814
 H        -7.0884736451        2.5532343014      -12.7002746619
 H        -6.3544347200        2.8292050731      -11.2097058373
 H        -7.9519175546        2.2754986852      -11.2687153180
 H        -4.8707471894        0.8807161916      -12.8979069225
 H        -4.9327193149       -0.7009619449      -12.0866748200
 H        -4.4871461486        0.9401956519      -11.2421666833
 H        -6.2988768137       -2.2018464723       -5.7011050224
 H        -6.2165678367       -0.5979942873       -4.9827303267
 H        -5.3802965975       -1.9747059782       -4.3548842846
 H        -4.5434922755        1.0170213521       -4.9007892549
 H        -2.9539566677        0.5373476107       -5.6563371069
 H        -3.4982042261       -0.2328527408       -4.2047740357
 H         1.9593547577       -1.0490327534       -6.4374221076
 H         3.4929364753       -1.8603015088       -6.4771323543
 H         2.5959089444       -1.8822733253       -4.9060048025
 H         2.5443833544       -2.9663504442       -8.5569472083
 H         0.9723305895       -2.1367479221       -8.4563071711
 H         1.3370375791       -4.0492804944       -8.6488284943
 H         6.4008932961       -8.2601532390       -2.7494392117
 H         5.2943959871       -8.2902236066       -4.0621702223
 H         5.0726312150       -7.1737825188       -2.6706713192
 H         7.6740773877       -4.8890804461       -3.9543545987
 H         7.7165407942       -5.9696465964       -2.6240200944
 H         6.3987890838       -5.0455458749       -2.8764526934
 H        10.5932648588      -13.0150015657       -5.7851273443
 H        10.5333251665      -11.5913186190       -6.7664806499
 H         9.0875577246      -12.5485668993       -6.4640388331
 H        10.2204262964      -12.6118712831       -2.7949564716
 H         9.3924044833      -13.5541305490       -3.9640202732
 H         8.5613594580      -12.3243553715       -3.1358524056
 H        16.3804912484       -7.8752248166       -2.4156493578
 H        15.5234614214       -9.3864739052       -2.8765600044
 H        15.0848540696       -8.5309278233       -1.3417089876
 H        13.9228922941       -6.5156850672       -1.2477368211
 H        13.3127372036       -5.4508382504       -2.5009706944
 H        15.0491391764       -5.6302811237       -2.3388418595
 H        14.9435857584       -8.5280989126       -9.1057742313
 H        13.2567919358       -8.9552771726       -8.3479365606
 H        14.4393388206       -8.4049216871       -7.4037087382
 H        15.3292327055       -5.9474053597       -9.2078778851
 H        13.9615500495       -4.8289794338       -9.2676261092
 H        14.1790368806       -6.0478656272      -10.5564963909
 Na       11.1337688917       -7.8438244317       -5.9239996552
 Na      -13.1325686516        2.9759081967      -13.5549211065
