232

 C        11.3842612197       -6.2296708274      -10.1520747288
 C        12.0209040419       -6.9632917398       -8.9161993954
 O        11.3343153546       -7.8197914397       -8.3397491412
 C        13.4471951503       -6.7613976468       -8.4169640591
 C        13.5257122117       -6.1505016340       -7.0373565273
 O        12.6993156374       -6.3992784384       -6.1736877664
 C        14.9086039701       -5.5631367023       -6.4802047289
 C        14.8818528581       -5.6486276028       -4.9892959252
 C        14.7366481481       -7.1437317409       -4.5213154877
 O        15.0407922762       -8.0885207431       -5.2116603885
 C        14.3524764142       -7.4500507911       -2.9437459112
 C        12.8631389968       -8.3057962631       -3.0288092928
 O        11.8194598853       -7.7592346633       -3.4109669202
 C        12.9905675570       -9.7799020608       -2.9823905603
 C        11.6246771888      -10.5710301077       -3.2051984033
 C        11.0226515374      -10.5602162911       -4.6589008360
 O        11.5343376199       -9.9908824860       -5.6032007215
 C         9.7434363680      -11.5384045120       -4.8124744075
 C         8.5192111245      -10.6026319466       -4.8901222098
 O         7.5639042652      -10.7328406581       -4.2007822657
 C         8.2932438454       -9.6912289675       -6.2028711926
 C         7.2194317675       -8.5988032497       -6.0049914356
 C         7.7881961186       -7.3695749947       -5.0421436037
 O         8.9545341078       -6.9758538282       -5.0569230060
 C         6.5702828801       -6.6817037549       -4.2762802903
 C         5.6756854025       -5.9412470429       -5.3710263159
 O         6.1719916432       -5.5897679124       -6.3674987720
 C         4.1677525673       -5.8178505882       -5.2279134086
 C         3.7716551974       -4.3986357597       -5.6036908790
 C         2.3630125990       -4.4110810192       -6.2311890475
 O         1.8530891171       -5.4795217423       -6.4890112150
 C         1.6826594678       -3.0285561623       -6.6109589515
 C         0.3254367364       -2.9242828762       -5.8491229662
 O         0.4311080401       -2.8749684792       -4.6277249931
 C        -1.0626902438       -3.0579436752       -6.5189172722
 C        -1.9600303657       -2.0068873184       -5.8861667030
 C        -3.4488329355       -2.2037388010       -6.3530212939
 O        -3.7442220545       -3.2209232656       -6.8753057777
 C        -4.4793972443       -1.0442203674       -6.0137332687
 C        -5.0036257685       -0.5125120253       -7.4081910781
 O        -4.4240505575        0.3806545888       -7.9636073161
 C        -6.1354976300       -1.3357177106       -8.0614672835
 C        -6.3007460966       -1.0858979724       -9.5863662973
 C        -7.0495245312        0.1454354966      -10.0507711383
 O        -7.8711039263        0.7907883615       -9.4392065888
 C        -6.6925404981        0.6141810871      -11.5559538751
 C        -7.6961191631       -0.3190728289      -12.3711677766
 O        -7.5155029184       -1.4950431256      -12.4294004196
 C        -9.0311721520        0.3472238570      -12.6665336984
 C        -9.9526437477       -0.5000289320      -13.5497515362
 C       -11.3228818900        0.2249770390      -13.7331585576
 O       -11.5236508890        1.1502755084      -13.0251429856
 C       -12.2505142387       -0.1223309139      -14.8764877472
 C       -13.7315786327       -0.0042422421      -14.2551161073
 O       -14.3148437984        1.0807763988      -14.3726065089
 C       -14.3903145331       -1.2365434073      -13.6157864648
 C       -15.4998560303       -0.9790202252      -12.5919829375
 C       -15.0236273732       -0.2764117481      -11.3362471162
 O       -13.8794783002       -0.5029831745      -10.9751206808
 C       -15.8587206443        0.8789870213      -10.5117144245
 C       -15.0094547789        2.2154687503      -10.6221386924
 O       -15.0683359422        3.0248118844      -11.5677862060
 C       -13.9946227221        2.7816584064       -9.5401354771
 C       -13.2701959613        4.0567082983       -9.9031525023
 C       -14.1037620216        5.3201437112       -9.9366885202
 O       -14.9887462976        5.4968988682       -9.1211493505
 C       -13.7839162646        6.5214356840      -10.9830750985
 C       -13.8290457348        5.8449321762      -12.3786562780
 O       -12.9048739322        5.0761481686      -12.6032298671
 C       -14.9272482704        6.1519385510      -13.4444674896
 C       -14.8367519582        5.2356965327      -14.6827067884
 C       -13.5527376259        5.2892749019      -15.4896929038
 O       -12.6474954176        4.5186321354      -15.1671189842
 C       -13.3642041448        6.2917371943      -16.5730063278
 C       -14.4500360167        5.9376207202      -17.7200106547
 O       -14.9702645390        4.8491192034      -17.7756021588
 C       -14.7408407386        7.1120123769      -18.8323045499
 C       -16.1066963860        6.7837976734      -19.6000899635
 C       -15.9311702205        6.9546331082      -21.1638637023
 O       -14.7998957582        7.0027614483      -21.6603641159
 C       -17.1768871528        7.0022285069      -22.1910279145
 C       -18.6577955741        7.6532687470      -21.5200902222
 O       -18.5152996248        8.3347873909      -20.5436622647
 C       -20.0762676079        7.2402811962      -21.9650267803
 C       -16.6531749906        7.6723961186      -23.4947151579
 C       -17.3808895236        5.4299070768      -22.4138020252
 C       -13.7031874359        7.7428840197      -15.9871715432
 C       -11.8458502657        6.1421868373      -17.1257620028
 C       -14.7463765854        7.7129405527      -10.7581356330
 C       -12.2817685577        6.9636607721      -10.7114057070
 C       -17.2497641933        1.3266743950      -11.1381055389
 C       -15.9444825340        0.3064896118       -9.0965533030
 C       -11.9915981782        0.8594258200      -15.9678940636
 C       -12.0959213847       -1.5954825685      -15.3715844547
 C        -7.0216046582        2.1249675879      -11.7555143557
 C        -5.2335748448        0.2999507632      -12.0734322947
 C        -5.5964532061       -1.5420600484       -5.0765057317
 C        -3.7597609145        0.2229874013       -5.3364883327
 C         2.5133503577       -1.8670563834       -6.1364943337
 C         1.4533648511       -3.0706931885       -8.1556772964
 C         5.7161551368       -7.6994968044       -3.3740225147
 C         7.1707021421       -5.5768495882       -3.2466366665
 C         9.9851429007      -12.3270439767       -6.1390709539
 C         9.4616896879      -12.5867227330       -3.7122709484
 C        15.4275914452       -8.3371181832       -2.4461450490
 C        14.2266870538       -6.1004717551       -2.1687523728
 C        14.0643415709       -8.2298999195       -8.5166473957
 C        14.2264823160       -5.8411858729       -9.4121522472
 H        11.6286534507       -5.1866312607      -10.1987053141
 H        10.2220543630       -6.1899275247      -10.1455668444
 H        11.8264115543       -6.6914256750      -11.0592209764
 H        15.0245439564       -4.4439673232       -6.6730830534
 H        15.7819997088       -5.9447305862       -7.0112456719
 H        14.1595735114       -4.9973035821       -4.5852950457
 H        15.8022020146       -5.2200407209       -4.5609861145
 H        13.4240551208      -10.1169510462       -1.9870346055
 H        13.7226025260      -10.0032293216       -3.7458711421
 H        10.7940633228      -10.2735129148       -2.5738498816
 H        11.6993137878      -11.6442943905       -2.9201637611
 H         7.8835110413      -10.4079004683       -6.8993408572
 H         9.0937230016       -9.2261743017       -6.7156105770
 H         6.3133054036       -9.0909121294       -5.6417775704
 H         7.0828081518       -8.1424861430       -6.9707541093
 H         3.8057051632       -5.9437447748       -4.2305101703
 H         3.7406145244       -6.5937668368       -5.8356550839
 H         4.5159330753       -3.8133640685       -6.1819544642
 H         3.7136084472       -3.8277922128       -4.6872065755
 H        -1.3520937561       -4.1202850744       -6.2595212620
 H        -1.0620763180       -2.9892759775       -7.5880582879
 H        -1.6484936496       -1.0056057365       -6.2138176718
 H        -1.9824739018       -2.0892316240       -4.7448846188
 H        -7.0762552329       -1.0972840212       -7.4832206601
 H        -5.8287585525       -2.4205117933       -7.9952105341
 H        -6.7502829641       -2.0210614459       -9.9209551197
 H        -5.3616580453       -1.0234208450      -10.1062468020
 H        -8.7597987160        1.2416805486      -13.2127539919
 H        -9.5814844614        0.6261948222      -11.7928635986
 H       -10.1925333313       -1.4963609317      -13.1240583294
 H        -9.4486021602       -0.8532074114      -14.4987181871
 H       -13.4891622656       -1.7445667818      -13.1594740897
 H       -14.8271324912       -1.8265230385      -14.4513717011
 H       -15.8901743621       -2.0010647754      -12.2467382307
 H       -16.3911371426       -0.5287638078      -12.9399929951
 H       -13.2577890159        1.9779010590       -9.2292418788
 H       -14.4589509265        2.8519431269       -8.5740777521
 H       -12.6032368709        3.8997979698      -10.7634208047
 H       -12.4360903013        3.9893077248       -9.1313263509
 H       -14.9371918596        7.2228870116      -13.6290111722
 H       -15.9257226542        6.0001512578      -13.0478139361
 H       -15.6247835201        5.5428882344      -15.4035698846
 H       -15.0354160795        4.1961730195      -14.3468753770
 H       -14.0447792187        7.0951798726      -19.6877979562
 H       -14.8387217262        8.1589049538      -18.4970965877
 H       -16.9605275499        7.3574176964      -19.1316270363
 H       -16.3473970223        5.6933170683      -19.6146733812
 H       -20.1779201082        7.4658541333      -23.0279780366
 H       -20.8438762674        7.7574585431      -21.3543422361
 H       -20.3015967178        6.1852973519      -21.8465296025
 H       -15.5084152476        7.5440469368      -23.5501551354
 H       -16.9589557265        8.6860852840      -23.6827015872
 H       -17.0146675740        7.0758725327      -24.3138894030
 H       -17.3165037782        4.9830688563      -21.4251095329
 H       -16.6372353497        5.1229180097      -23.0850274621
 H       -18.3158965105        5.2069076816      -22.6907784046
 H       -13.3897439893        8.6294768666      -16.5408235558
 H       -13.2724742043        7.9664174352      -14.9760847766
 H       -14.8059029112        7.8217217244      -16.0303978328
 H       -11.7846185785        5.2446515992      -17.7049794262
 H       -11.0655528677        6.2755499411      -16.3954194680
 H       -11.6464772413        7.0546615656      -17.7567667045
 H       -14.9830605809        7.8516862036       -9.6777364691
 H       -15.7356914391        7.5374892759      -11.1637018449
 H       -14.3539896216        8.6481980764      -11.1059853546
 H       -11.5231457248        6.1884292389      -10.9700145189
 H       -12.2193506642        7.4005456048       -9.7231876137
 H       -11.9055977224        7.7606223141      -11.3354492087
 H       -17.8096299204        2.1245404540      -10.5630079359
 H       -18.0033084719        0.5592887365      -11.3410272633
 H       -17.0183291235        1.6814934115      -12.0957643805
 H       -16.4880067291       -0.6447388773       -9.2234656224
 H       -16.6139515029        1.0053055175       -8.5213221657
 H       -14.9501771639        0.0881844800       -8.7077232242
 H       -12.1912503319        1.9057056966      -15.6637018891
 H       -12.6729055716        0.5452658000      -16.7705559770
 H       -10.9887967241        0.7929370790      -16.3131690218
 H       -11.0649061017       -1.7235397115      -15.6982164139
 H       -12.7891286647       -1.8650370135      -16.1727918922
 H       -12.2772069823       -2.4046108984      -14.5762615028
 H        -6.8354766258        2.4168422044      -12.7606041900
 H        -6.5331100870        2.9037610094      -11.1654942843
 H        -8.0278376578        2.2954089936      -11.6177695430
 H        -5.1606902771        0.8048320227      -13.0052418717
 H        -4.9753693135       -0.7501508417      -12.3684377318
 H        -4.3820830662        0.8118914911      -11.5524763979
 H        -5.9982943856       -2.4324535835       -5.5823742412
 H        -6.4091706154       -0.8250192973       -5.0230594841
 H        -5.2466485352       -1.9190851871       -4.1040781735
 H        -4.4209417951        0.9053506800       -4.9897558293
 H        -3.0474081217        0.6694745568       -6.0668724822
 H        -3.2999013307       -0.2180961729       -4.4925381423
 H         2.0794000167       -1.0581238312       -6.6783878661
 H         3.5618586498       -1.9041469992       -6.3013430114
 H         2.2900468300       -1.7717293280       -5.0609032909
 H         2.3025477742       -3.4421621184       -8.7514352419
 H         1.1719196545       -2.1245612422       -8.5535965457
 H         0.7653332848       -3.9454947311       -8.3843618447
 H         6.2625256627       -8.2501433470       -2.6716263555
 H         5.1847905539       -8.4933034262       -4.0136165982
 H         5.0484612773       -7.1547538537       -2.7663744504
 H         7.9884766477       -4.9211599164       -3.4865900863
 H         7.4082863510       -6.1171996481       -2.3524967743
 H         6.4885979824       -4.8827379502       -2.8840093842
 H        10.8027344211      -13.0002657832       -5.8809321067
 H        10.3028783549      -11.7378952399       -6.9541830645
 H         9.1418841710      -13.0407674885       -6.3859657806
 H        10.1993635551      -12.6889111315       -2.8965967640
 H         9.2869203702      -13.5782250061       -4.1245153694
 H         8.4720363283      -12.4118357328       -3.2463440635
 H        16.3691130309       -7.8643324763       -2.7563568489
 H        15.4683422459       -9.3087586866       -2.8627763270
 H        15.3952985395       -8.3418227109       -1.3722692856
 H        13.8906725410       -6.1591743530       -1.1498975034
 H        13.5462075477       -5.3965360945       -2.7178762117
 H        15.1804002703       -5.6093597410       -2.2315229425
 H        14.3520969532       -8.4716628400       -9.5677931657
 H        13.3104105759       -8.8737969310       -8.0209869320
 H        15.0056704038       -8.4135402519       -7.8903514601
 H        15.2769833075       -5.9643126002       -9.2409284692
 H        13.9573424009       -4.7540754161       -9.2936156988
 H        14.0503358848       -6.0430600079      -10.4966963764
 Na       10.9280045871       -7.9709492013       -5.9505749894
 Na      -13.0349163280        2.9633723498      -13.6341010933
