232

 C        11.5311692747       -6.3242427847      -10.2004833561
 C        12.0254676362       -6.9625646712       -8.9164546325
 O        11.3200707586       -7.8100772809       -8.3357609932
 C        13.4832281688       -6.7330462488       -8.4985615387
 C        13.5839186086       -6.3051814915       -6.8900957545
 O        12.7004209920       -6.4660303148       -6.1128435809
 C        14.8859771279       -5.5819073511       -6.3934712886
 C        15.0680680181       -5.6609902224       -4.8804406766
 C        14.7431792999       -7.0652519213       -4.4084995343
 O        14.8921158442       -8.0592037468       -5.1095957079
 C        14.3211479340       -7.4319221156       -2.9727825767
 C        12.9060503159       -8.2477213672       -3.1981246998
 O        11.8850860321       -7.6002132076       -3.4994464792
 C        12.9473434891       -9.7478299690       -3.0514102456
 C        11.5990505507      -10.4578526405       -3.1644390174
 C        11.0387648477      -10.7145591349       -4.5852380384
 O        11.4861545044      -10.1146172091       -5.5208639474
 C         9.8027209188      -11.6876952882       -4.9480836980
 C         8.4294436684      -10.6937409435       -5.1946443690
 O         7.6670747908      -10.7171888145       -4.2380226013
 C         8.3144499954       -9.6630822922       -6.2930629969
 C         7.3324325848       -8.6003714127       -5.9352339793
 C         7.6707091670       -7.4271955280       -5.0293837920
 O         8.8611892967       -7.1124173234       -4.9959743123
 C         6.5992340512       -6.6872042570       -4.2727223050
 C         5.7051600457       -5.9051685558       -5.3348196021
 O         6.2189363513       -5.4526831522       -6.3682293737
 C         4.1989106335       -5.7472219277       -5.0382586148
 C         3.6562801850       -4.3170176290       -5.4467913221
 C         2.3472204162       -4.3796354916       -6.2904682725
 O         1.7077150252       -5.4167977347       -6.4341316531
 C         1.6767173565       -2.9391193993       -6.7162925409
 C         0.4316683853       -2.9649078905       -5.7795383242
 O         0.5656468569       -2.7803347395       -4.5852342837
 C        -1.0255719122       -2.9911526997       -6.3975298568
 C        -2.0230472027       -1.9865421641       -5.7674833801
 C        -3.4834129258       -2.2771145525       -6.2534810488
 O        -3.8273223256       -3.2677806485       -6.8645325361
 C        -4.4327392419       -1.0507051754       -6.0644573322
 C        -5.0124155674       -0.5610113724       -7.5003311673
 O        -4.4584380422        0.3228643022       -8.1380214292
 C        -6.0958194199       -1.4407134911       -8.1829660953
 C        -6.2020942670       -1.0567255092       -9.6688815349
 C        -6.9040069152        0.2123340830      -10.0016320809
 O        -7.7400895311        0.7758984561       -9.3108098177
 C        -6.8282375860        0.5745563018      -11.5711433040
 C        -7.8540897758       -0.3577921573      -12.3373549521
 O        -7.6013930767       -1.5670995266      -12.5708862348
 C        -9.1028391089        0.3560730793      -12.7018255490
 C        -9.9916961191       -0.5360342933      -13.4951518860
 C       -11.3133177848        0.2561953499      -13.6848480834
 O       -11.5413381969        1.3249367095      -13.0641171070
 C       -12.3339733486       -0.2585494208      -14.8557801470
 C       -13.8101086005       -0.0809227137      -14.2043587265
 O       -14.4442551869        0.9897559687      -14.1377032420
 C       -14.4376123682       -1.3636949655      -13.4951693910
 C       -15.5655684566       -1.0207153121      -12.4811157566
 C       -14.9951715816       -0.1031096418      -11.3436012318
 O       -13.9152298542       -0.4336914527      -10.8101512396
 C       -15.7299282696        1.0077240085      -10.5486616107
 C       -14.9418831446        2.3226214136      -10.6849415448
 O       -15.0975557599        2.9628601483      -11.7132397751
 C       -13.9742972528        2.7030595569       -9.4443042423
 C       -13.2435821721        4.0107498157       -9.8053800774
 C       -14.1150637851        5.3113268642       -9.8706366832
 O       -15.0873914494        5.4540081688       -9.1920584571
 C       -13.7483742100        6.5080221465      -10.9549914867
 C       -13.8443975923        5.7675982347      -12.3528033892
 O       -12.9723278312        4.9281023764      -12.6288129100
 C       -14.9453536319        6.0283733756      -13.3446825230
 C       -14.8925763780        5.2251389210      -14.7375740721
 C       -13.4672936780        5.2406381436      -15.5090210833
 O       -12.6542945498        4.3436098807      -15.3704946972
 C       -13.3324943472        6.3395393677      -16.6532522456
 C       -14.3920217627        5.9725660991      -17.7977696632
 O       -15.0548008956        4.9640081403      -17.6837393608
 C       -14.8800024824        7.0361959164      -18.7921745501
 C       -16.0976709831        6.7617995826      -19.5934256682
 C       -15.9948017688        7.0511776989      -21.0917344612
 O       -14.8369106054        6.9149357316      -21.5321047754
 C       -17.2288200663        7.0928983729      -22.0982401593
 C       -18.5485653025        7.6562557809      -21.5019674092
 O       -18.5423175183        8.3847297475      -20.5432794680
 C       -19.9107239820        7.1932061611      -22.0132282884
 C       -16.7892134686        7.8263133808      -23.3849001453
 C       -17.4150912805        5.6210088526      -22.4915022731
 C       -13.6147992217        7.6605998782      -16.1216203417
 C       -11.8636186338        6.3488266400      -17.0752694527
 C       -14.6449464773        7.6835161941      -10.7268794338
 C       -12.3147656965        7.0469947684      -10.9248489872
 C       -17.1102432997        1.4229779393      -11.0427074651
 C       -15.9209063886        0.4008546717       -9.1125976082
 C       -11.8713624411        0.8048521235      -16.0067972530
 C       -12.1479390997       -1.6808738549      -15.3973537223
 C        -6.9533657380        2.0461629184      -11.7604297305
 C        -5.3761965799        0.2019883550      -12.1132501356
 C        -5.5060839289       -1.6362816692       -5.0008497211
 C        -3.7614275277        0.2018553347       -5.5053743644
 C         2.6016601184       -1.7143282602       -6.3611687956
 C         1.4142801350       -3.0428253965       -8.2341903730
 C         5.7681175358       -7.6756010128       -3.4953116833
 C         7.2141848995       -5.5989423737       -3.2374194788
 C        10.0143594564      -12.4331386153       -6.3271944101
 C         9.4827860022      -12.5601590274       -3.7944362361
 C        15.4953851914       -8.2467658719       -2.4301662739
 C        14.1723373451       -6.1695675886       -2.0665633934
 C        14.1232693487       -8.0675730736       -8.5212423422
 C        14.2856499910       -5.7432044382       -9.4993569977
 H        11.8075378786       -5.2932433480      -10.1351031833
 H        10.4957467002       -6.2998666836      -10.3975635185
 H        12.1733823537       -6.6823271094      -11.0062026887
 H        14.7619351235       -4.5162087916       -6.8652775395
 H        15.7862560871       -5.9219313142       -6.9523287986
 H        14.5616865226       -4.9246693940       -4.3035156973
 H        16.0669604978       -5.4968958284       -4.5553070434
 H        13.2966643406       -9.9966309508       -2.0558176973
 H        13.6817878051      -10.2035848870       -3.7499780157
 H        10.7491988736       -9.9785641889       -2.7144205751
 H        11.5736515665      -11.4318992770       -2.5361323052
 H         7.9382608032      -10.0894560144       -7.2835624348
 H         9.3125335407       -9.3909107556       -6.5175442547
 H         6.5407915330       -9.1967856081       -5.5046310164
 H         6.9840577999       -8.1821963398       -6.9289588815
 H         3.9790315451       -5.9762759300       -3.9602111693
 H         3.7470858359       -6.5044815023       -5.6601636674
 H         4.3451825261       -3.8729034340       -6.2037607939
 H         3.6403424584       -3.5258333910       -4.6918129167
 H        -1.3681660069       -3.9833688883       -6.2077636279
 H        -0.9874649758       -2.8382005521       -7.4436699685
 H        -1.9053454705       -0.9798404151       -6.2162649292
 H        -1.9802245284       -1.9379792659       -4.6897951041
 H        -7.0078800325       -1.1896087623       -7.5969540955
 H        -5.8009461215       -2.4428528192       -8.1345356081
 H        -6.7219388659       -1.9275089028      -10.1790363617
 H        -5.2529084303       -1.0233822036      -10.0956055343
 H        -8.8002512689        1.3137911000      -13.1759798700
 H        -9.6946520670        0.5882939557      -11.8128940557
 H       -10.1428120819       -1.5254774486      -12.9770005382
 H        -9.6371724664       -0.8311921471      -14.4284355029
 H       -13.5556916989       -1.8518084336      -12.9883887115
 H       -14.8754808772       -1.9866366564      -14.2797264641
 H       -15.9139900812       -1.9200855036      -12.0495511208
 H       -16.4668533436       -0.5661695979      -12.8864809130
 H       -13.3695372310        1.7794778254       -9.1610782669
 H       -14.5205735095        2.7662031183       -8.5736156495
 H       -12.6308301164        3.8153832871      -10.7596755421
 H       -12.3167959073        4.0522257660       -9.1295542131
 H       -15.0200432926        7.0920798573      -13.4051083732
 H       -15.8953692912        5.8114891577      -12.8464192954
 H       -15.5327149274        5.7341128269      -15.4707581879
 H       -15.2044169237        4.2136343744      -14.5529737006
 H       -14.1787396585        7.1294198774      -19.6479345102
 H       -15.0213006888        8.0709052417      -18.3824831295
 H       -16.8833673736        7.4472969983      -19.2260517513
 H       -16.4668340061        5.6991280100      -19.5689392300
 H       -20.0261653538        7.1974779639      -23.0521186787
 H       -20.5814830182        7.8798106075      -21.5342331269
 H       -20.2676180091        6.2367518138      -21.6015483799
 H       -15.7690016515        7.4785409475      -23.6795442437
 H       -16.7462275761        8.8582455568      -23.0985626039
 H       -17.4590995847        7.7879224759      -24.2839702609
 H       -17.9443638929        5.0763510890      -21.7294332994
 H       -16.4541366818        5.3024416356      -22.6704160078
 H       -18.0303123330        5.5481607361      -23.3700782570
 H       -13.4945891832        8.5353286533      -16.7948670724
 H       -12.9942670673        7.8943394608      -15.2730350121
 H       -14.6899900863        7.7182378411      -15.8602574279
 H       -11.7755156391        5.5180353710      -17.7498493615
 H       -11.2391193503        6.0884814996      -16.1770932887
 H       -11.3906010694        7.2458293309      -17.3671219767
 H       -14.8576041394        7.7488448825       -9.6162663780
 H       -15.6193520624        7.6455320178      -11.1073464627
 H       -14.1188896755        8.6062557147      -10.9181968658
 H       -11.5918823598        6.2904379253      -11.1135537734
 H       -12.1574889969        7.6630735447      -10.0716246704
 H       -12.0343482424        7.7210975545      -11.7711099745
 H       -17.5799856696        2.2154269266      -10.3553529810
 H       -17.7625345487        0.6554274977      -10.9994755148
 H       -17.1829347693        1.7804170270      -12.0974152952
 H       -16.4589366115       -0.5798350097       -9.1954159337
 H       -16.4981107270        1.1679441304       -8.5411692919
 H       -14.9484813273        0.1917974853       -8.7267803194
 H       -12.0086229297        1.8263264217      -15.7317661440
 H       -12.4090943971        0.5986779002      -16.9762856166
 H       -10.8626253095        0.6502169325      -16.1417112360
 H       -11.0758485533       -1.8257638793      -15.5320344938
 H       -12.5967835969       -1.8066223730      -16.3608847499
 H       -12.5265768396       -2.5376959537      -14.7870875232
 H        -6.7434659110        2.3756444533      -12.7278972800
 H        -6.1675216407        2.5372174746      -11.1410233021
 H        -7.9042663356        2.5746585761      -11.4108443419
 H        -5.1372669808        0.5731662971      -13.1277635721
 H        -5.2753704095       -0.8138987535      -12.2582719867
 H        -4.6014208501        0.6374323302      -11.5657898637
 H        -5.6893459144       -2.6755505962       -5.2878360525
 H        -6.5125025672       -1.1412778553       -5.0194107273
 H        -5.0411131853       -1.7209476677       -3.9350254220
 H        -4.5382034898        0.8139372005       -5.0934771607
 H        -3.3036368321        0.7046772975       -6.3262009018
 H        -3.1189751555       -0.0415890984       -4.6117740001
 H         2.2048156478       -0.7950253933       -6.8153864111
 H         3.6416381625       -1.8607570207       -6.6364142317
 H         2.4652705598       -1.6732315341       -5.3413896867
 H         2.2227744595       -3.4632737998       -8.8613927300
 H         1.2397962621       -2.0913204148       -8.6261136500
 H         0.6367350122       -3.7263864943       -8.4027961605
 H         6.3622438463       -8.3241111050       -2.7820329928
 H         5.2697143674       -8.4147150420       -4.1386973044
 H         5.1699826337       -7.1543293831       -2.8016763653
 H         8.0780466526       -5.0668168993       -3.5315738230
 H         7.3757927936       -5.9941308776       -2.1935894841
 H         6.5393031964       -4.7684435577       -3.0524554524
 H        10.9256722363      -12.9763307098       -6.5175888763
 H         9.8342062676      -11.7039624201       -7.1801816455
 H         9.2014953476      -13.1788795419       -6.3127559337
 H        10.3704869351      -12.6841877460       -3.1267599608
 H         9.1595152951      -13.5481744042       -4.1415391745
 H         8.6255190105      -12.2958767984       -3.1764491306
 H        16.3459488262       -7.6692999198       -2.5799169201
 H        15.6562920599       -9.1208524038       -2.9793106424
 H        15.3895422374       -8.3856612064       -1.3368890815
 H        14.0141684056       -6.4139898009       -1.0200006333
 H        13.5054080283       -5.4042146177       -2.3977491231
 H        15.1688465341       -5.6925235968       -2.1302116975
 H        13.8535742488       -8.5881265843       -9.4629462896
 H        13.8861265077       -8.5971062835       -7.5760993586
 H        15.2301491151       -8.0560014497       -8.6533144827
 H        15.3701129493       -5.7794053662       -9.2391572148
 H        13.9035266351       -4.7329883346       -9.5205370014
 H        14.1969953600       -6.0200317120      -10.5300952660
 Na       10.7435939192       -7.9391623873       -5.9591637143
 Na      -13.0046897650        2.8637457247      -13.6018776747
