232

 C        11.6331485694       -6.4169185879      -10.2679007094
 C        12.0577210672       -6.9443742167       -8.8773543867
 O        11.2604630272       -7.6394765817       -8.2982563420
 C        13.5636890009       -6.7227339654       -8.4018820907
 C        13.5961449893       -6.2327894299       -6.8826489601
 O        12.6794813882       -6.5906574959       -6.1761942009
 C        14.8531930011       -5.5611621312       -6.4371092815
 C        15.1734378717       -5.7406898913       -4.9177533544
 C        14.8042820989       -7.1163002938       -4.3959316894
 O        14.7892453001       -8.0084757388       -5.2278442224
 C        14.3269468869       -7.3939983747       -2.9168380371
 C        12.9510223735       -8.0955762269       -3.2569397483
 O        11.9986778237       -7.4780488178       -3.6251813989
 C        12.8461745960       -9.7508218026       -3.1754938700
 C        11.4332618410      -10.3765160524       -3.1867567614
 C        10.9788059733      -10.7595271212       -4.6649086497
 O        11.5585777600      -10.1277427743       -5.5446215345
 C         9.7419861157      -11.7656420155       -5.0039985993
 C         8.6056558824      -10.6490377243       -5.1544816190
 O         7.6854833299      -10.6687963399       -4.3465847084
 C         8.3231754607       -9.7747377689       -6.3783388021
 C         7.2428661915       -8.6580999668       -6.0235353121
 C         7.7498977911       -7.5285709832       -5.0475457346
 O         8.8738250167       -7.1531956733       -4.8560990704
 C         6.5493689462       -6.7162044534       -4.2446767252
 C         5.6987970885       -5.8253507334       -5.2808995548
 O         6.2397267375       -5.3303946110       -6.2889289125
 C         4.2116746588       -5.5974069840       -4.9248287639
 C         3.6281782808       -4.2530383512       -5.4384388150
 C         2.2918808184       -4.3062580930       -6.2073353621
 O         1.6488712233       -5.2874052768       -6.4382323490
 C         1.6665368662       -2.9820912297       -6.6947084281
 C         0.4353510282       -2.7450269961       -5.7300285272
 O         0.6758711870       -2.6826103311       -4.5570714083
 C        -0.9629626066       -3.0552592399       -6.3239730273
 C        -1.9656842875       -2.0748469866       -5.7744568813
 C        -3.3689009176       -2.1327288146       -6.3723788195
 O        -3.8450278882       -3.2292181040       -6.7345719649
 C        -4.4250554476       -1.0108969587       -6.1495987657
 C        -4.9840819947       -0.7840123643       -7.5364405416
 O        -4.5075445284        0.1748862827       -8.1243750319
 C        -6.1257707648       -1.5695755652       -8.2012991580
 C        -6.1028604562       -1.2245032050       -9.6998601099
 C        -6.8659844391        0.0843354059      -10.0344247525
 O        -7.4887292447        0.7601340925       -9.2670574263
 C        -6.7295241654        0.5613488756      -11.5372271589
 C        -7.8614141364       -0.3057051914      -12.2858653411
 O        -7.6974480168       -1.4668083844      -12.6368017673
 C        -9.1750201560        0.3618826131      -12.6746010669
 C       -10.2405565534       -0.5730180417      -13.4090175910
 C       -11.4651158722        0.1786694151      -13.7298743383
 O       -11.5334421138        1.2986020114      -13.1861511631
 C       -12.4737001643       -0.3527888517      -14.7706686868
 C       -13.8650185966       -0.1404998643      -14.1533364918
 O       -14.3862482407        0.8945641271      -13.9510661553
 C       -14.4625656162       -1.3719292369      -13.3924384601
 C       -15.5331295723       -0.8452407929      -12.4432581233
 C       -14.9059324243       -0.0622234727      -11.2062843955
 O       -13.8331810873       -0.3867022065      -10.7892418638
 C       -15.7676681476        1.0670674770      -10.5383509168
 C       -14.8398771018        2.3774025515      -10.7182587855
 O       -14.8396007842        2.9651643001      -11.7627415582
 C       -14.0131912549        2.7969197286       -9.5870540205
 C       -13.1748454682        4.1232332467       -9.7524734747
 C       -14.0747901483        5.2642485506       -9.9003174251
 O       -15.1099866785        5.3774063573       -9.2813874941
 C       -13.6895850153        6.4207237195      -10.9724936525
 C       -13.8545084241        5.6447672069      -12.3597071895
 O       -12.9905788889        4.8116876438      -12.5675403113
 C       -14.9581060209        5.9232873785      -13.3634225934
 C       -14.8229108235        5.2159230031      -14.7003153626
 C       -13.5605607793        5.2154974633      -15.6094315265
 O       -12.8214396233        4.2721578361      -15.5743400045
 C       -13.3728854973        6.3322554011      -16.6239693749
 C       -14.5283080913        6.0405001308      -17.7763530579
 O       -15.0989885400        4.9525401832      -17.6291973985
 C       -14.8487098264        7.0669062657      -18.7741375427
 C       -16.1881617812        6.7691919074      -19.4840670044
 C       -16.0102361906        6.9535124260      -21.0631376111
 O       -14.9263844796        6.9724979050      -21.5145980416
 C       -17.1795958924        7.0698248350      -21.9879037550
 C       -18.4741277480        7.6608502477      -21.3515829173
 O       -18.4210208338        8.5310002742      -20.4720263780
 C       -19.7123274448        7.1357118275      -22.1511396111
 C       -16.9523544470        8.1110590968      -23.1969657183
 C       -17.4823197302        5.6235410048      -22.6229712801
 C       -13.6196315393        7.7992661173      -16.0631467691
 C       -11.8036111658        6.4083077596      -17.2070893374
 C       -14.6912811184        7.5662317412      -10.7709977394
 C       -12.2360662018        6.9479841049      -11.0015997703
 C       -17.1980428177        1.3541260378      -11.0952916915
 C       -15.8974355776        0.6210754098       -9.0429241249
 C       -12.0747575842        0.6644063881      -15.9602992969
 C       -12.1455173261       -1.6308602723      -15.3110959028
 C        -6.9542004821        2.0274616679      -11.7262210971
 C        -5.4114618151        0.0489016994      -12.1697786785
 C        -5.4619625394       -1.5960885260       -5.1330493434
 C        -3.8395683220        0.2599532202       -5.5045380772
 C         2.6431076256       -1.7064393727       -6.6377391474
 C         1.4149236074       -3.0551203193       -8.2769491244
 C         5.7531583029       -7.7040038825       -3.4980893753
 C         7.2275552685       -5.7217560338       -3.4023038629
 C        10.0669121125      -12.4027731981       -6.3642649792
 C         9.5283584624      -12.7685622387       -3.8520713094
 C        15.4760142008       -8.2865784795       -2.2777330829
 C        13.9752013796       -6.2137455079       -1.9301636298
 C        14.3721783813       -8.0904288949       -8.5012689243
 C        14.2264282014       -5.6854191432       -9.2930317917
 H        11.6217344333       -5.3064481455      -10.2625670167
 H        10.6591154554       -6.6856188840      -10.4131273288
 H        12.2974418552       -6.6582452790      -11.0393032940
 H        14.9213570600       -4.6378278989       -6.9626022917
 H        15.5880154912       -6.1827532142       -7.0157929244
 H        14.6214011000       -5.0213615188       -4.2619967986
 H        16.1759232386       -5.5228608577       -4.6133552994
 H        13.2762624337      -10.1513424747       -2.3009078075
 H        13.3920744750      -10.2780478069       -3.9872974286
 H        10.5415704370       -9.8415255823       -2.7440496113
 H        11.4385827874      -11.2426771445       -2.5303412010
 H         8.0825037151      -10.4158136615       -7.2715685652
 H         9.3705121437       -9.3097598637       -6.6874049504
 H         6.4020087391       -9.1510475650       -5.5088952006
 H         6.8702563582       -8.1805184371       -6.9891231963
 H         4.1695090256       -5.5733818087       -3.7976463034
 H         3.6248568204       -6.4702682119       -5.3168196367
 H         4.2981450899       -3.6259621778       -6.0506926026
 H         3.4386956084       -3.5368592471       -4.5989766633
 H        -1.1974223338       -4.0613445255       -6.0607685752
 H        -0.8149005840       -2.9071855914       -7.4043428791
 H        -1.6649730764       -1.0401250601       -5.7791771967
 H        -2.1841230352       -2.3638230543       -4.7895715147
 H        -6.9581416109       -1.1827635778       -7.6907935536
 H        -5.9799086258       -2.6130529570       -8.0949984621
 H        -6.4789375619       -2.0886434643      -10.2603389057
 H        -5.0217177706       -1.1110030479      -10.0008419632
 H        -8.9157450741        1.2342491223      -13.3182790893
 H        -9.6942105747        0.7853809590      -11.7703216735
 H       -10.4088645590       -1.5745300953      -13.0524285778
 H        -9.9062248430       -0.6914146200      -14.4302618448
 H       -13.6878661095       -1.8664408364      -12.8668157147
 H       -14.9956266930       -2.0189179412      -14.0816165764
 H       -16.1001394349       -1.6678748739      -12.1390522390
 H       -16.2723750316       -0.1707689304      -12.9252184119
 H       -13.5593002428        1.9125067743       -9.2599036033
 H       -14.7607863262        2.9328906317       -8.7205178299
 H       -12.3637751961        4.0584225694      -10.4802268611
 H       -12.5724493275        4.2239287042       -8.8647675238
 H       -15.0777284363        7.0129121037      -13.3534749892
 H       -15.9399673744        5.6424252624      -12.9552520343
 H       -15.6018306410        5.5496636442      -15.3590962924
 H       -14.9062297421        4.1760087337      -14.3976123835
 H       -14.0890296492        7.0878074622      -19.6064959209
 H       -14.8758787073        8.0482854601      -18.2954857019
 H       -16.9501557422        7.4892109369      -19.2254843799
 H       -16.4582904434        5.7553703703      -19.1671801103
 H       -19.4713491960        6.8833091573      -23.1765166259
 H       -20.5688448627        7.7713874091      -22.1047931729
 H       -20.1304484224        6.2926096977      -21.5966467099
 H       -16.3401730179        7.7439380300      -23.9477010425
 H       -16.4917516973        8.9986671188      -22.6838961700
 H       -17.8786094377        8.5671774125      -23.6452959599
 H       -18.3386885455        5.1654620654      -22.1951338458
 H       -16.5563795708        4.9858727641      -22.4855174302
 H       -17.7329923099        5.7522894830      -23.7490028111
 H       -13.6264238321        8.5180563917      -16.8776694903
 H       -12.8451193248        8.1300992076      -15.3871320467
 H       -14.5588716978        8.0039964297      -15.5653148024
 H       -11.5799014325        5.5997732643      -17.9296964418
 H       -11.1295841528        6.2378524567      -16.3577923395
 H       -11.5039098623        7.3727823023      -17.5195243529
 H       -14.8373875253        7.7890593316       -9.7510343223
 H       -15.7256167385        7.3521141946      -11.0785990317
 H       -14.2378802705        8.5100753380      -11.1263825466
 H       -11.4774458987        6.2291269518      -11.1380194881
 H       -12.1292681863        7.6273676707      -10.1548991933
 H       -11.9980238622        7.5762143998      -11.8544918771
 H       -17.6381863063        2.0925635783      -10.5393527668
 H       -17.8718151602        0.4327375256      -10.8947652869
 H       -17.3939396541        1.6248680671      -12.1627777468
 H       -16.4357005757       -0.3124879090       -8.9469927997
 H       -16.2101185339        1.4307980778       -8.4238078141
 H       -14.8063592906        0.3947373310       -8.8610318352
 H       -12.1771156399        1.7092737310      -15.8018179437
 H       -12.5333581457        0.4140782512      -16.8834149217
 H       -10.9675310945        0.4429569809      -15.9983054571
 H       -11.0896031232       -1.8071688860      -15.5572461622
 H       -12.6887525871       -1.7470276072      -16.2665777894
 H       -12.4495328233       -2.4199075418      -14.7244812285
 H        -7.1557135914        2.4821515170      -12.7666211191
 H        -6.0739416900        2.5662907633      -11.3763775448
 H        -7.7223394457        2.4117360053      -10.9950212946
 H        -5.1572994246        0.3139578100      -13.1846454267
 H        -5.4353810651       -1.0127370423      -12.2683887265
 H        -4.6075213610        0.4454639511      -11.6558990214
 H        -5.7101256923       -2.6993228852       -5.1700591306
 H        -6.4456751218       -1.0355336949       -5.1360889864
 H        -4.9540603305       -1.4391019371       -4.1838914264
 H        -4.7081292885        1.0457951014       -5.2842255626
 H        -3.3012758903        0.6479674305       -6.3317921085
 H        -3.3333298213        0.0882926343       -4.5365237103
 H         2.0959302152       -0.8276757487       -6.9683757760
 H         3.4886127494       -1.9191886075       -7.3109646419
 H         2.8961138552       -1.5502062890       -5.5890793509
 H         2.2699271677       -3.0236050849       -8.9104685605
 H         0.9816631918       -2.0528381024       -8.4159508148
 H         0.7485990204       -3.8049311225       -8.5675749387
 H         6.3687684039       -8.5539648936       -3.0665275955
 H         5.1562223949       -8.2403722776       -4.1524016859
 H         5.3008088130       -7.2939375928       -2.5387139971
 H         8.0414429266       -5.2775957634       -4.0114520333
 H         7.5967293659       -5.9729018233       -2.4167781231
 H         6.6623239045       -4.7570666602       -3.1862580130
 H        11.1030530601      -12.8145920425       -6.4811628990
 H         9.8612153546      -11.6944453836       -7.2160533326
 H         9.4273346033      -13.2445837945       -6.4137733464
 H        10.4876894919      -13.2037237568       -3.5961182172
 H         8.8057102153      -13.5317798713       -4.1820693302
 H         9.0819062623      -12.4216338955       -2.9279731027
 H        16.3482072898       -7.7199440746       -2.0129569313
 H        15.7682113532       -8.9253455434       -3.1308417956
 H        15.1454007040       -8.7988648092       -1.3944625341
 H        14.0045229022       -6.7220724824       -0.9362517045
 H        13.0750935123       -5.7001717577       -2.1323110001
 H        14.7614162544       -5.4383249222       -1.8507881760
 H        13.8034923142       -8.7253633889       -9.1731843610
 H        14.6206878428       -8.5360838011       -7.5416164603
 H        15.1952806340       -8.0345262891       -9.1522457701
 H        15.2698991335       -5.4975011608       -9.0236273078
 H        13.6638657918       -4.8440161699       -9.5552754766
 H        14.2470631338       -6.1427594772      -10.2607219355
 Na       10.7609800357       -7.8059001204       -5.9355462095
 Na      -13.1307430446        2.7739682277      -13.5638513007
