232

 C        12.1057828251       -7.1381470805      -10.2949898094
 C        12.2832161635       -6.9870190209       -8.7579248619
 O        11.2889032523       -7.1175252608       -8.0710593538
 C        13.7150321992       -6.5671337525       -8.2962459518
 C        13.7422876959       -5.9447331433       -6.7687161141
 O        12.6773587300       -5.4921306919       -6.3286973864
 C        15.0899271308       -5.7707099229       -6.0421033251
 C        14.7939411856       -5.7650269964       -4.5673637524
 C        14.9116341638       -7.2796799760       -4.0258379834
 O        15.5708054000       -8.1570859848       -4.5166833551
 C        14.0998863301       -7.6494103092       -2.6745270271
 C        12.7050020446       -8.1258039562       -3.2913686993
 O        11.9851260571       -7.2601182245       -3.6595458125
 C        12.4500351790       -9.5387954566       -3.6351355318
 C        10.9996035013       -9.9813864682       -3.8019029789
 C        10.7527532491      -10.3987070852       -5.2361108637
 O        11.2648093859       -9.7322454334       -6.1405481065
 C         9.6697300242      -11.4135834092       -5.6560704024
 C         8.1992896175      -10.5519702509       -5.4630335569
 O         7.8320276937      -10.3430294422       -4.3549935758
 C         7.8394385110       -9.7473302595       -6.6772031821
 C         6.8546082731       -8.6525524054       -6.3189460469
 C         7.4262426461       -7.6361011095       -5.2928335854
 O         8.6085040205       -7.3663526470       -5.3704507966
 C         6.5253188338       -6.9224293750       -4.2346625721
 C         5.6936443408       -5.7377396985       -5.2292540903
 O         6.1682778458       -5.5500622682       -6.2956517020
 C         4.4487244865       -5.0014712528       -4.5643226304
 C         4.0752388334       -3.9347718594       -5.5760513843
 C         2.6520718150       -4.1794610829       -6.1757147669
 O         2.0849040669       -5.2463236662       -5.9583395853
 C         1.9501767417       -3.0233382051       -6.9405934752
 C         0.8528960777       -2.3191643523       -5.9500459488
 O         1.2563434700       -1.2882887774       -5.4034260217
 C        -0.5936465868       -2.9076348464       -5.7434666424
 C        -1.6049016703       -1.7250286183       -5.8251778291
 C        -3.0842538705       -2.2472773777       -6.0168305978
 O        -3.3056503344       -3.3975536922       -6.1847191550
 C        -4.1987813141       -1.2639902099       -6.3588146355
 C        -4.4249527081       -1.2588307553       -7.8700657688
 O        -3.6681977049       -0.6159646032       -8.5545421553
 C        -5.6089598957       -2.1869519129       -8.4534447313
 C        -5.7278059459       -1.8795213500      -10.0172505294
 C        -6.4990831466       -0.5594036510      -10.2462702192
 O        -7.1989545473       -0.0679313579       -9.3423213688
 C        -6.6265857680        0.0766010576      -11.6791579753
 C        -7.9430979567       -0.6461384790      -12.1076579404
 O        -7.8904186964       -1.8202894644      -12.2450653024
 C        -9.2246034106        0.2051175212      -12.4881823280
 C       -10.4580223140       -0.6689065854      -13.0263031303
 C       -11.6197160526       -0.0251044699      -13.7197646821
 O       -11.7198167369        1.2050461140      -13.5340477900
 C       -12.6955372368       -0.9967720074      -14.3463385311
 C       -13.9950714532       -0.5738119249      -13.5298208208
 O       -14.3958611658        0.5482889635      -13.4586588275
 C       -14.7549339391       -1.7105231171      -12.7246514515
 C       -15.7265341859       -1.0015623283      -11.7874492704
 C       -15.0038354335       -0.1433421787      -10.7160038960
 O       -13.8117730677       -0.2534785277      -10.6043530518
 C       -15.7246258503        1.2129205428      -10.1509973734
 C       -14.7378459297        2.3999204441      -10.4942210799
 O       -14.6405158939        2.8748972809      -11.6632063046
 C       -13.7904375407        2.8992129162       -9.2953109644
 C       -12.9813572309        4.1650539094       -9.8021110489
 C       -13.9206240583        5.2222285171      -10.2855164604
 O       -15.1171240981        5.1843688766      -10.0437918290
 C       -13.3673103163        6.4568200384      -11.1000189383
 C       -13.6530731071        5.8390978751      -12.5821109050
 O       -12.8382904125        5.0166057022      -12.9814250047
 C       -14.9229904492        6.1494254983      -13.3154850904
 C       -15.2083988765        5.1722876080      -14.5052140140
 C       -14.0294463951        5.0730458141      -15.5384296547
 O       -13.3223082683        4.0820372688      -15.5624422161
 C       -13.6913475492        6.1805388704      -16.5924786768
 C       -14.9438678693        6.0944899232      -17.6513066357
 O       -15.8165235889        5.3037626556      -17.4868324067
 C       -14.8556735886        6.8301654149      -18.9601458266
 C       -16.2301247162        7.0996140139      -19.5445397644
 C       -16.1580850481        7.5047590323      -21.0941969389
 O       -15.0145585305        7.6814445006      -21.5085116921
 C       -17.3936904791        7.6902319978      -22.0348025376
 C       -18.7471356446        8.1085112943      -21.3969437476
 O       -18.7441442098        8.6676343699      -20.3428074741
 C       -19.9555443700        7.6826943408      -22.1534367234
 C       -16.9718465644        9.0011747048      -22.8883059493
 C       -17.4496452631        6.4615878873      -23.0838707219
 C       -13.5417881849        7.5036539837      -15.6772744900
 C       -12.3823984379        6.0078002380      -17.2918566018
 C       -14.2768628239        7.6384935631      -10.8673923657
 C       -11.8484563546        6.7258058613      -11.0143089381
 C       -17.0553724184        1.5801128850      -10.8875073425
 C       -15.9868039177        1.2202981714       -8.6549321144
 C       -12.9563260503       -0.4374037083      -15.8294122149
 C       -12.2488382963       -2.4217871440      -14.2569071034
 C        -6.6522976020        1.5811998304      -11.5183155408
 C        -5.5953133877       -0.4291334352      -12.6934815838
 C        -5.5109874848       -1.6451201828       -5.5981350760
 C        -3.9329269005        0.2061421276       -5.9111510982
 C         2.8792510016       -1.8557811961       -7.3003606841
 C         1.3443192936       -3.6828228736       -8.2335773524
 C         5.4417987441       -7.9447238511       -3.6772092110
 C         7.3140286464       -6.3547032165       -3.1381031128
 C        10.0229671270      -11.8905506870       -7.1912304702
 C         9.3929203297      -12.6754773391       -4.7580139600
 C        14.7263866657       -8.7024917115       -1.7373595709
 C        13.8704728785       -6.3460535449       -1.8132840871
 C        14.5858302581       -7.8367994006       -8.4060554063
 C        14.3137825992       -5.4916728037       -9.1761761444
 H        12.2825224091       -6.1579454030      -10.7211203784
 H        11.0889452587       -7.6224471366      -10.5484422185
 H        12.7993249426       -7.8413918470      -10.7730667345
 H        15.2599352118       -4.7430299063       -6.4151147306
 H        15.8895496515       -6.5666813289       -6.2884172549
 H        13.7758086717       -5.4437419837       -4.3365781083
 H        15.4566314486       -5.1482549315       -4.0170314029
 H        12.8951795052      -10.1984653248       -2.9019130664
 H        12.9880097342       -9.7778260776       -4.5977690229
 H        10.3245309347       -9.0863775568       -3.7741522784
 H        10.6340465159      -10.5520013257       -3.0095439149
 H         7.5550016172      -10.3180062214       -7.5346131682
 H         8.8892778163       -9.3973699794       -6.8962716425
 H         5.9669759516       -9.1944678539       -5.9326080128
 H         6.4203909473       -8.2355886676       -7.2018739167
 H         4.7831726348       -4.6637115204       -3.6069915942
 H         3.7171851591       -5.7581744227       -4.5237034007
 H         4.7016987315       -4.0053246932       -6.4684081585
 H         4.1480627873       -2.8998000912       -5.2322969677
 H        -0.6222245947       -3.3379940333       -4.7655051549
 H        -0.7879170619       -3.6349428023       -6.5135865362
 H        -1.3815919658       -1.0291006352       -6.6800921554
 H        -1.5473744189       -1.1484058014       -4.8471362114
 H        -6.4469145376       -2.0306987554       -7.8859136148
 H        -5.4336000327       -3.2845949629       -8.3529782207
 H        -6.3262216612       -2.6831313665      -10.3430697854
 H        -4.7829890823       -1.9565271561      -10.6440717711
 H        -8.9650547082        0.9939628564      -13.1828845627
 H        -9.4070253260        0.7419704421      -11.5531164170
 H       -10.8084685333       -1.1445495759      -12.1524695790
 H       -10.1114703229       -1.3979928442      -13.7733014518
 H       -14.0006633120       -2.3947285561      -12.2875753309
 H       -15.3987769620       -2.2828124797      -13.4768113592
 H       -16.3694288094       -1.7547295643      -11.3592147814
 H       -16.2834625427       -0.2863912726      -12.3390555422
 H       -13.1529811224        2.1406313514       -9.0627097800
 H       -14.5037161859        3.3487191873       -8.4981661435
 H       -12.3397940871        3.7444209794      -10.6498815435
 H       -12.3335883984        4.4621529904       -8.8979230886
 H       -15.0678661215        7.2122667895      -13.4904185478
 H       -15.7259571701        5.9124959833      -12.6174358183
 H       -16.1245225171        5.4482274575      -15.0065001905
 H       -15.4385236807        4.1863151005      -14.0628162115
 H       -14.4919870044        6.1202243676      -19.7242652891
 H       -14.1730442612        7.6568849792      -18.9694752353
 H       -16.6002615711        8.0056911757      -19.0137352090
 H       -16.9081631463        6.2200243768      -19.4153769407
 H       -20.6230043227        8.5505464323      -22.4378215489
 H       -20.4351296383        6.9463242116      -21.5007335500
 H       -19.6449663036        7.1076984967      -23.0097910412
 H       -17.2569775415        9.9004091780      -22.3133516295
 H       -17.3715321493        9.1026317753      -23.9200683847
 H       -15.9095644417        8.8683171532      -22.9674402687
 H       -18.0540738684        5.6758381606      -22.6651639986
 H       -16.5301711877        6.0013035431      -23.3118810412
 H       -17.7905927247        6.7736401763      -23.9796356388
 H       -13.0649080611        8.3651013941      -16.1525436554
 H       -12.9176273650        7.4005354445      -14.7315049456
 H       -14.5489716906        7.8227342228      -15.3440733487
 H       -12.3091786952        5.0577014000      -17.8393238110
 H       -11.6563996438        5.9712838974      -16.5068831184
 H       -12.2184393307        6.7732462964      -18.1012303540
 H       -14.1285041725        8.0262941925       -9.8901992123
 H       -15.3273411735        7.2894780737      -10.9153657366
 H       -14.2241084583        8.4282907595      -11.6223363249
 H       -11.2932758475        5.7757433640      -11.0767173089
 H       -11.5873112879        7.0366765849       -9.9874445726
 H       -11.6762922966        7.5106170072      -11.6980748270
 H       -17.6931200802        2.3785905251      -10.3185609062
 H       -17.7677480044        0.7743562374      -10.9795442670
 H       -16.9179817413        1.9489046081      -11.8709798532
 H       -16.7598829264        0.5131436076       -8.3128242270
 H       -16.4206367385        2.1980775277       -8.3846181335
 H       -15.0122014346        1.0735308904       -8.0920798130
 H       -13.2419148220        0.6251076772      -15.9003760248
 H       -13.6718297765       -1.0261050015      -16.3289624476
 H       -12.0801348423       -0.6974560385      -16.4573539047
 H       -11.4575239826       -2.8443078298      -14.8499948652
 H       -13.1334049263       -3.1263897809      -14.2816951767
 H       -11.8508097772       -2.5965215287      -13.2446835429
 H        -7.3583999147        2.2043295624      -12.0567503993
 H        -5.6602665888        2.0238914710      -11.6528922681
 H        -6.9425983381        1.7047863434      -10.5388183750
 H        -5.8761016599       -0.0263179414      -13.6212703517
 H        -5.4275266260       -1.5407322928      -12.6424910347
 H        -4.5614879989       -0.0677873131      -12.4283645628
 H        -5.9561646913       -2.5774926300       -5.9355448389
 H        -6.2585710272       -0.8827256495       -5.5873394570
 H        -5.2373776370       -1.7914671840       -4.6159840194
 H        -4.6679695204        0.7907166551       -6.3087180787
 H        -2.8998852671        0.4216854448       -6.2991703332
 H        -3.7799893292        0.2350035608       -4.8757366394
 H         2.2268007217       -1.1345989414       -7.7186384100
 H         3.6529009344       -2.1485356221       -8.0207851447
 H         3.3707865024       -1.4653865769       -6.3503785740
 H         2.1350405574       -4.0884281244       -8.8525485474
 H         0.6086649639       -3.0039510079       -8.6782572537
 H         0.7572732303       -4.6011760414       -7.8620990471
 H         5.8851577774       -8.8645318345       -3.5093532813
 H         4.5828065700       -7.9845103265       -4.3600093939
 H         4.9014317323       -7.6715028867       -2.7910580124
 H         8.3419316249       -6.1158239267       -3.4562320002
 H         7.4857695336       -6.8882440987       -2.2713715227
 H         6.8473411679       -5.4119694641       -2.9022042362
 H        10.9167708991      -12.5194204503       -7.2115691081
 H        10.1766310455      -11.0811063655       -7.8216474946
 H         9.1451037732      -12.4219872018       -7.5351422238
 H         8.3970861079      -12.5844330139       -4.3884633184
 H        10.0136065100      -12.6887612065       -3.8639739811
 H         9.5660694206      -13.5734774361       -5.3435722567
 H        15.2532749178       -8.1330289269       -0.9273308792
 H        15.4212873627       -9.3337093785       -2.3333289091
 H        13.9961983414       -9.3670126133       -1.3730174133
 H        13.3860065657       -6.6462515612       -0.8712463036
 H        13.2452951867       -5.5190886552       -2.1882537568
 H        14.8649283118       -6.0174870361       -1.5964837330
 H        14.4599541452       -8.5672587902       -7.6016982956
 H        15.6689994666       -7.7138418939       -8.4242473969
 H        14.4425631600       -8.1977228748       -9.4407925413
 H        15.1832920072       -4.9994583237       -8.7956931166
 H        13.6191014706       -4.6404063166       -9.2427810426
 H        14.7189362357       -5.9592531687      -10.0888450518
 Na       10.9716621903       -7.0227454572       -5.7354726993
 Na      -13.2628863938        2.7708582312      -13.5702299294
