232

 C        12.3688504696       -7.0201488710      -10.4017470205
 C        12.2901940131       -6.9875468504       -8.9323041705
 O        11.2686272647       -7.1615798888       -8.2927203699
 C        13.6708761589       -6.7253728510       -8.1071355574
 C        13.5707521618       -6.1025709132       -6.6153172886
 O        12.4907002529       -5.7540855846       -6.1759550538
 C        14.9668800610       -5.6382996753       -5.8684247378
 C        14.8350141555       -5.6297834788       -4.2911848994
 C        14.9580127687       -7.1536936045       -3.7519669542
 O        15.6244673342       -8.0423295084       -4.2775395006
 C        13.9523113675       -7.6308558189       -2.4771448785
 C        12.6661385736       -8.0829038524       -3.3201420353
 O        11.8910617824       -7.2967429878       -3.7883322426
 C        12.4293229734       -9.5829806580       -3.6971386274
 C        10.9515583559       -9.8426714993       -4.0383994134
 C        10.6915197680       -9.9039361389       -5.5272002046
 O        11.1722272001       -9.3216323498       -6.5332135181
 C         9.6153684243      -11.0756677512       -5.9620562943
 C         8.1844782340      -10.3786130464       -5.7746481052
 O         7.6559312120      -10.4766957978       -4.7083847695
 C         7.8013337760       -9.3863631040       -6.9813496397
 C         6.8261674699       -8.3001680671       -6.5785871844
 C         7.3593935827       -7.5142831220       -5.2974706900
 O         8.5933878793       -7.4235762298       -5.0934454726
 C         6.2579331257       -6.8393638066       -4.3962751840
 C         5.5869556392       -5.7062730303       -5.3130101147
 O         5.9153277810       -5.4794887263       -6.4532485664
 C         4.5555918469       -4.9446647975       -4.5608890748
 C         4.1247956998       -3.7294527758       -5.4088387765
 C         2.7055199909       -3.9747598622       -5.9645754765
 O         2.0079162932       -4.7730245057       -5.3709825705
 C         2.1029725508       -3.0867067290       -7.0831174922
 C         1.1209606721       -2.2341510614       -6.2408473375
 O         1.5732330668       -1.2595181830       -5.6777771276
 C        -0.2254814108       -2.7679673750       -5.8671540302
 C        -1.3360938093       -1.9341648990       -6.4869071499
 C        -2.7286482730       -2.4187647975       -6.0554692908
 O        -2.7821997111       -3.4734191534       -5.5101587849
 C        -3.9708743321       -1.4625747416       -6.4185500225
 C        -4.0394247486       -1.5301135990       -7.9345291231
 O        -3.1754479554       -1.0143425603       -8.6578744742
 C        -5.2432865737       -2.2985016123       -8.6474326624
 C        -5.3665804520       -1.8192289556      -10.0612919135
 C        -6.4301770496       -0.7020004857      -10.2641198331
 O        -7.0643969708       -0.3405896609       -9.2643900338
 C        -6.6802146931       -0.1838938262      -11.6954081077
 C        -7.8782503607       -1.0793216646      -12.1682151811
 O        -7.8103807044       -2.2783611070      -12.1429813021
 C        -9.0621532752       -0.3079022892      -12.8389933199
 C       -10.2466469501       -1.1461018569      -12.9825778053
 C       -11.4632131225       -0.3137826273      -13.4041891580
 O       -11.5011051289        0.9331609230      -13.5354838069
 C       -12.7552202445       -0.9897904393      -14.0457613603
 C       -14.0504219461       -0.6867350590      -13.2650986261
 O       -14.5049718791        0.4195396489      -13.3281634126
 C       -14.7715214676       -1.7399397463      -12.3389907137
 C       -15.7777543425       -0.9624787102      -11.5368806592
 C       -15.1325752805       -0.0422245109      -10.5531484755
 O       -14.0677542315       -0.4380504158      -10.1286084920
 C       -15.7173031248        1.2999363859      -10.0467676740
 C       -14.7326326639        2.3920340380      -10.4601950490
 O       -14.7481270396        2.7192236999      -11.6969311573
 C       -13.7649589275        3.0062418736       -9.3720294678
 C       -12.9715262164        4.1943046454       -9.8506685740
 C       -13.8709010511        5.3618146643      -10.1864057730
 O       -14.9750421419        5.5827957100       -9.8052322768
 C       -13.2292241902        6.4413959415      -11.1194121137
 C       -13.5548510239        5.8161553765      -12.5432984274
 O       -12.7971309123        4.9968907991      -13.0354389806
 C       -14.8020026810        6.2869985954      -13.2323725994
 C       -15.2439424161        5.3766248288      -14.3658752008
 C       -14.3535429198        5.0702558803      -15.5889073471
 O       -13.7822371597        3.9473964228      -15.6014658878
 C       -14.1264995238        6.0015699706      -16.7802503322
 C       -15.3936336298        6.0623919686      -17.7789985577
 O       -16.5173129625        5.7990836700      -17.4444297863
 C       -15.0748501261        6.6628191824      -19.1633384239
 C       -16.2931396781        7.0523399961      -19.8759489656
 C       -16.0400529648        7.9164891837      -21.1452069496
 O       -14.9198743166        8.4946581144      -21.3812823553
 C       -17.2639468067        7.9607576523      -22.0563855774
 C       -18.6032264455        8.2426830932      -21.2334522335
 O       -18.6083731807        8.6863885284      -20.1445463355
 C       -19.9406910518        8.1230691022      -22.0693284481
 C       -17.3087937681        9.2588668236      -22.8818797850
 C       -17.1808903137        6.6660802831      -22.8181255414
 C       -13.9225404516        7.4467433570      -16.3250820728
 C       -12.8988649561        5.5049510650      -17.5998445427
 C       -13.9540154565        7.8300074311      -10.9184466250
 C       -11.6937054975        6.5831944289      -10.9382922119
 C       -17.0561870753        1.5872594422      -10.7181507461
 C       -15.9681046510        1.2825783636       -8.4629031042
 C       -12.8036200062       -0.3701236364      -15.4410751077
 C       -12.6324192006       -2.5893551900      -13.9515314117
 C        -6.9270695806        1.3882236939      -11.6307928484
 C        -5.5211306596       -0.5893050389      -12.6172798936
 C        -5.2169779400       -1.9882517331       -5.6204856051
 C        -3.5915974692        0.0299380856       -6.0928533225
 C         3.2162302428       -2.2045759985       -7.6957406438
 C         1.2083267062       -3.8625556885       -8.1735578566
 C         5.2385624251       -7.8387526502       -3.6554389543
 C         7.1237618538       -6.0630868753       -3.2245847231
 C        10.0456581832      -11.5571192388       -7.3383252542
 C         9.5260185787      -12.3403355523       -5.1230728949
 C        14.6477576672       -8.8054567080       -1.7186635980
 C        13.6264874238       -6.5557506400       -1.4180796608
 C        14.6039177781       -7.9897559442       -8.2359404233
 C        14.4651211180       -5.5450415800       -8.8684540847
 H        11.8464425438       -6.1360602172      -10.7836706438
 H        11.7799089223       -7.9420856472      -10.7226280223
 H        13.3906487293       -7.2121912634      -10.8869826439
 H        15.0813062335       -4.5816145778       -6.1674276329
 H        15.7807856622       -6.3510603883       -6.1676410777
 H        13.8813185388       -5.1355900870       -4.0025661261
 H        15.7158029135       -5.1169758879       -3.9250737183
 H        12.6897645738      -10.2828460626       -2.9022039974
 H        13.0082004013       -9.8371353806       -4.6207888691
 H        10.3623904507       -9.0073343083       -3.6093228660
 H        10.5718978110      -10.7141822547       -3.6247821727
 H         7.4061356869      -10.0080404301       -7.7219152014
 H         8.7206941031       -8.9074592844       -7.2364633195
 H         5.8797057637       -8.7832970335       -6.2587444647
 H         6.5328644871       -7.7692370915       -7.4376470596
 H         5.0247753898       -4.7110081631       -3.5811765296
 H         3.7583668067       -5.7093996287       -4.4452045980
 H         4.7678357672       -3.6243444613       -6.2805644719
 H         4.0250635411       -2.7817058118       -4.8517277337
 H        -0.3674383232       -2.7708391794       -4.7738980448
 H        -0.2823483293       -3.8154308330       -6.0815964273
 H        -1.3375867267       -2.2042783677       -7.5841687394
 H        -1.2875158762       -0.8002096077       -6.2330433133
 H        -6.1893330409       -2.2658923364       -8.1474812140
 H        -4.8956330912       -3.3941110841       -8.5043146339
 H        -5.8165963390       -2.4697103543      -10.7455938245
 H        -4.3615379446       -1.4938658355      -10.4788523012
 H        -8.8655217702        0.1620214089      -13.7859132467
 H        -9.2655911238        0.5108635834      -12.1483163168
 H       -10.5286891022       -1.7037415772      -12.1062239505
 H       -10.0330373796       -1.8068003236      -13.9017963330
 H       -14.0537267540       -2.4110775814      -11.8554828422
 H       -15.3191678973       -2.3966930312      -13.0735354087
 H       -16.5000886436       -1.6568600154      -11.0230669779
 H       -16.2913476470       -0.3621615392      -12.2439998301
 H       -13.0796616032        2.2676406112       -9.1454129747
 H       -14.4236212422        3.4840671847       -8.6039618158
 H       -12.4723539267        3.7730095730      -10.7547203868
 H       -12.2263329758        4.4337044068       -9.0502326092
 H       -14.8094539430        7.3086980605      -13.6533807888
 H       -15.6193734829        6.2196971156      -12.4889448564
 H       -16.1512754742        5.8461134157      -14.7598251463
 H       -15.7299182329        4.4352764870      -14.0016129519
 H       -14.6328298566        5.8479046328      -19.7456132907
 H       -14.3344070310        7.4203770015      -19.0671850459
 H       -16.9492041581        7.6160298896      -19.1857178152
 H       -16.8496369134        6.1358673373      -20.1778203539
 H       -20.7582467330        7.5905164411      -21.4723532809
 H       -19.7145216591        7.4733079986      -22.9590910612
 H       -20.3080574096        9.1526014374      -22.2295352411
 H       -18.3594561276        9.6403816154      -23.0780138730
 H       -16.9487952533        9.0072140756      -23.8529286040
 H       -16.7058133059        9.9793122560      -22.3910506327
 H       -17.2376871414        5.6449429531      -22.2934272482
 H       -16.3032890263        6.6535274040      -23.4333353801
 H       -17.9708843706        6.6411047234      -23.5923921137
 H       -13.8569231067        8.1284411508      -17.1365930764
 H       -13.0171149371        7.6273325868      -15.7095018556
 H       -14.8581561265        7.7855912559      -15.9165006171
 H       -13.0026658295        4.6310486517      -18.2206927340
 H       -12.0448076271        5.5848158424      -16.9839454432
 H       -12.6327116826        6.3762583586      -18.3043247952
 H       -13.9150521787        8.1026550380       -9.8640689670
 H       -15.0248521611        7.6484356061      -11.1142597971
 H       -13.6692431653        8.5638066618      -11.6623493829
 H       -11.2595827220        5.6826333646      -11.4707635423
 H       -11.3719192664        6.6885817767       -9.8820210058
 H       -11.4587356378        7.4472734826      -11.4979862310
 H       -17.6319834461        2.4983956325      -10.2828125503
 H       -17.7096845127        0.7908352953      -10.7034571012
 H       -16.9359272328        1.7104271852      -11.7815907410
 H       -16.5634095029        0.4613977450       -8.1378808663
 H       -16.6986145862        2.0877454274       -8.2924447359
 H       -15.1196687777        1.3045408847       -7.8011942608
 H       -13.0589425619        0.7260375329      -15.3715414038
 H       -13.5915035888       -0.7795765810      -16.1151574592
 H       -11.8985701057       -0.5907693414      -15.9794526194
 H       -11.9083073546       -3.0076061148      -14.6140852458
 H       -13.5802415982       -3.1441532952      -14.0997774366
 H       -12.2842094856       -3.0261945716      -12.9695550443
 H        -6.8902023271        1.9225529054      -12.5533083628
 H        -6.2406963313        1.9162460214      -10.9322031488
 H        -7.9179222467        1.4935532260      -11.3181936581
 H        -5.6734227094        0.1413820489      -13.4037416706
 H        -5.5989221045       -1.6655906855      -12.9969162149
 H        -4.5119159927       -0.5044246617      -12.0622148354
 H        -5.4098876271       -3.0387300605       -5.6718408938
 H        -6.0280036797       -1.4282875055       -6.0212049711
 H        -5.1569140178       -1.8129051625       -4.5689738074
 H        -4.4744517784        0.4912235250       -5.8814803174
 H        -3.1180549268        0.5042011985       -6.9709478730
 H        -2.8552202219        0.1037736069       -5.3072162794
 H         2.6100622084       -1.5730011285       -8.3399175994
 H         3.9076043875       -2.7991223407       -8.3206966789
 H         3.7814167192       -1.5863615262       -6.9198726185
 H         1.6816336283       -4.0208564699       -9.1675675682
 H         0.4448079707       -3.1323034879       -8.5003089976
 H         0.8471089820       -4.8294991256       -7.6756192387
 H         5.7785191459       -8.5121376298       -3.0564723271
 H         4.6882405835       -8.3520425944       -4.5151432900
 H         4.4788923731       -7.4265720986       -3.0139590254
 H         7.1887379240       -4.9272012064       -3.2361316814
 H         8.1364222553       -6.4791520339       -3.0181538943
 H         6.6074270775       -6.3036131206       -2.2922405267
 H        11.0909303976      -11.8561359357       -7.4298387070
 H         9.8505775301      -10.7716199118       -7.9903590206
 H         9.3654900799      -12.3969459112       -7.6188671399
 H         9.4760233161      -12.0116035940       -4.1113383767
 H        10.3352332693      -13.0381910378       -5.2523493631
 H         8.6152526498      -12.8462495116       -5.4405090965
 H        15.6554459646       -8.5103663950       -1.2460803661
 H        14.8463551330       -9.6328145238       -2.4306780979
 H        13.9283170221       -9.2225733142       -1.0140783485
 H        13.0369804013       -7.0590996629       -0.6303902998
 H        12.9671001817       -5.7924712568       -1.9393049071
 H        14.4885116934       -6.0285465391       -1.0542138151
 H        14.0087680257       -8.8676313136       -8.3920347241
 H        15.2912198724       -8.1269885435       -7.4336814577
 H        15.2911813570       -7.9354785495       -9.0908154916
 H        15.4849428969       -5.4167787803       -8.6027524769
 H        13.9818576972       -4.5920201161       -8.5498263730
 H        14.4791489876       -5.7269788917       -9.9672760400
 Na       10.6435841132       -7.0526784888       -5.8773663042
 Na      -13.3999597844        2.4304407193      -13.5953406990
