232

 C        12.6191321270       -7.0198251279      -10.3612453595
 C        12.4027059079       -6.7960507862       -8.8340528427
 O        11.3248117519       -6.8789624132       -8.2743985546
 C        13.7518417475       -6.5254271403       -8.0551494417
 C        13.5709713734       -6.1264617287       -6.5266350780
 O        12.5135616459       -5.8806552213       -5.9580441552
 C        14.8448244560       -5.7507616027       -5.8211976054
 C        14.6014417101       -5.7494566402       -4.2920262925
 C        14.8995719497       -7.2023236272       -3.7731044745
 O        15.8142299019       -7.8551729361       -4.1731452912
 C        13.9215620425       -7.5934611792       -2.6353361124
 C        12.5782616636       -8.0360606827       -3.3510908913
 O        11.8045788001       -7.0791534690       -3.5238918053
 C        12.3121724559       -9.5113240031       -3.6952709354
 C        10.7769528921       -9.8351145437       -3.9899928318
 C        10.6285781018      -10.2809366947       -5.5898523033
 O        11.2730481142       -9.5548275733       -6.3087571289
 C         9.5778763950      -11.1839617327       -6.2004383894
 C         8.2439028558      -10.3352762589       -6.0550237819
 O         7.5420023061      -10.4409800162       -5.0788259712
 C         7.9213316378       -9.2977807520       -7.1317854909
 C         6.8974638233       -8.2513818762       -6.4815058766
 C         7.4570277268       -7.4136935151       -5.2340841316
 O         8.6059609711       -7.4334124732       -4.9377141359
 C         6.2523788918       -6.6834812743       -4.2768847391
 C         5.5728558765       -5.6208636590       -5.2500899415
 O         5.6716203966       -5.5841655271       -6.4526953193
 C         4.5136584364       -4.7718381276       -4.4882574272
 C         4.0486350025       -3.6096418069       -5.2528491345
 C         2.6832175492       -3.9465853070       -5.8754150773
 O         1.9857042557       -4.8607645570       -5.4728818717
 C         2.1709673177       -3.0653054429       -7.1046479280
 C         1.2650263787       -2.0502815141       -6.3427829505
 O         1.7414755402       -0.9755867569       -5.9791295873
 C        -0.0357640661       -2.5743494095       -5.7636631628
 C        -1.1557070652       -2.0764754796       -6.6489792482
 C        -2.5299237428       -2.4388912085       -6.0466229415
 O        -2.7140802605       -3.2795995657       -5.2166811778
 C        -3.8257301410       -1.5141650023       -6.4608764547
 C        -3.9099678062       -1.7074044639       -8.0221042125
 O        -2.9937687923       -1.2270971994       -8.6409726776
 C        -5.0720296724       -2.4845975526       -8.6257159654
 C        -5.3296651991       -2.0079520192      -10.0150264849
 C        -6.2838476524       -0.8082014841      -10.1832456196
 O        -6.8312548256       -0.2861183475       -9.2607424778
 C        -6.6434643596       -0.3441253436      -11.6432798715
 C        -7.7988277176       -1.2220039223      -12.2355638217
 O        -7.7276238540       -2.4384186125      -12.2703839379
 C        -8.9669277820       -0.4349367874      -12.8939258208
 C       -10.2466484358       -1.3275475426      -13.1361668833
 C       -11.5723553892       -0.3061987778      -13.4024566504
 O       -11.5445939797        0.8678405376      -13.1865230831
 C       -12.8496081393       -1.0538574494      -14.0204064488
 C       -14.1485625452       -0.6451156446      -13.2195686619
 O       -14.6249087072        0.4905497312      -13.4125972705
 C       -14.8839827737       -1.7082184505      -12.2784347304
 C       -15.8663614529       -1.0338786968      -11.3006145755
 C       -15.2288947428       -0.1159619790      -10.2806114282
 O       -14.1223849752       -0.3908411474       -9.8705262733
 C       -15.8566285291        1.2901576114       -9.9448381550
 C       -14.7705379853        2.4676017409      -10.4389098165
 O       -14.6441856044        2.7864131020      -11.5603878727
 C       -13.9685295144        3.0021201620       -9.2727966678
 C       -12.9609132465        4.0735516428       -9.9185769921
 C       -13.7021248923        5.4357361411      -10.1776476755
 O       -14.7226052388        5.6551136861       -9.5118326717
 C       -13.1461765020        6.4981749840      -11.1895314749
 C       -13.4828121952        5.8331778897      -12.6549612422
 O       -12.9107334687        4.8016700101      -13.0014064098
 C       -14.6517746662        6.3076138114      -13.4254988323
 C       -15.4067100132        5.3755915054      -14.4590832741
 C       -14.4862986427        4.9073531694      -15.6044930133
 O       -13.8595532550        3.8883337136      -15.5871065005
 C       -14.3040776261        5.8354392078      -16.7886530736
 C       -15.4751763116        5.9913946603      -17.8290860812
 O       -16.5888193437        6.0751178104      -17.4489896835
 C       -15.1244490889        6.3882253205      -19.3497598787
 C       -16.3606395686        6.9409075257      -20.0511221074
 C       -16.1389455597        8.0488640216      -21.0549480914
 O       -15.2102143398        8.7603887106      -21.0779957007
 C       -17.2654839972        8.2557960153      -22.1016754264
 C       -18.6623826402        8.4156834729      -21.2682388358
 O       -18.5778573020        8.6516444255      -20.0675868765
 C       -19.9965844393        8.1871688707      -21.9588999470
 C       -17.0220678836        9.3827463666      -23.0636289508
 C       -17.4326246749        6.9811403261      -22.9496193819
 C       -13.9490835716        7.2922369930      -16.2652975995
 C       -13.0244766800        5.3744446649      -17.6157944886
 C       -13.7642089193        7.9592934694      -10.8693894560
 C       -11.6051419926        6.5946045243      -11.0541033738
 C       -17.2074686665        1.5119614978      -10.5999035715
 C       -16.0588037682        1.4055661490       -8.4079184266
 C       -13.0849030585       -0.7374037245      -15.5688394721
 C       -12.5973709909       -2.5432321631      -14.1062387697
 C        -6.9686369604        1.1206849097      -11.5745357638
 C        -5.4115704235       -0.5185891390      -12.6859635489
 C        -4.9953169901       -2.1002871419       -5.7225272912
 C        -3.5866669805       -0.0200418671       -5.9517688853
 C         3.1700797876       -2.2651616749       -7.9590183157
 C         1.5219717413       -4.1572681627       -8.0337921943
 C         5.2030390891       -7.7778595270       -3.9658204390
 C         7.0189527995       -5.9000347080       -3.1583260570
 C         9.8149752883      -11.4941845535       -7.7469121237
 C         9.3700710130      -12.5380141612       -5.3545386758
 C        14.6407880568       -8.8113955314       -1.8436555613
 C        13.6498499427       -6.3531232729       -1.6786110948
 C        14.4728879554       -7.9830306124       -7.9523217080
 C        14.5098355633       -5.5011704167       -8.8360414224
 H        12.7390144222       -6.0485593631      -10.8509801448
 H        11.8220700111       -7.5720623749      -10.8684677139
 H        13.4541410189       -7.6139436639      -10.4581456867
 H        15.0847571630       -4.6846008731       -6.0846070541
 H        15.5994526048       -6.4754372237       -6.1039823649
 H        13.5495156043       -5.5501253668       -4.2398875462
 H        15.2647540935       -4.9850656445       -3.8995873449
 H        12.6459906966      -10.0886596218       -2.8210062275
 H        12.8257501573       -9.8612203063       -4.5815818482
 H        10.1325046636       -8.9551417536       -3.8524927734
 H        10.5222626095      -10.6314034043       -3.2051398338
 H         7.3428928409       -9.9034790614       -7.9188918493
 H         8.9385126948       -8.8102951004       -7.3682136712
 H         6.0350967726       -8.8553715546       -6.2200625563
 H         6.4935774942       -7.4929673179       -7.2578242536
 H         5.0242121618       -4.3859847977       -3.6366409713
 H         3.7341661541       -5.4261469588       -4.1801926598
 H         4.7110246480       -3.3361600597       -6.0818667464
 H         3.8619605286       -2.8039176424       -4.5450928706
 H        -0.2413394125       -2.2675007755       -4.7594272980
 H         0.0474019219       -3.6710655234       -5.6464072659
 H        -1.0874771311       -2.5973926387       -7.5824516402
 H        -1.1903349748       -1.0554978230       -6.7340370768
 H        -5.9303245250       -2.4073601858       -7.9555117176
 H        -4.7897615243       -3.4924994150       -8.6208246868
 H        -5.6772485779       -2.8133898324      -10.7421165259
 H        -4.4621498412       -1.5225420592      -10.3923915095
 H        -8.5182276770       -0.1054274582      -13.8735155051
 H        -9.2356031006        0.4587418096      -12.3163840872
 H       -10.5326460511       -1.9057076749      -12.2487901327
 H       -10.0582449631       -1.9604060799      -13.9207458247
 H       -14.1057549430       -2.3781297740      -11.8426870650
 H       -15.4023564057       -2.3809591986      -12.9672699538
 H       -16.3869120498       -1.7116007780      -10.6873442823
 H       -16.6395009925       -0.4685719076      -11.9039698701
 H       -13.4710829103        2.0422103974       -8.9213226181
 H       -14.5679804862        3.6462326829       -8.6208250973
 H       -12.5277726323        3.6309108149      -10.8268128693
 H       -12.1774029548        4.3196929840       -9.1721638033
 H       -14.4103084073        7.2054821714      -13.9677107265
 H       -15.4003353810        6.4776826785      -12.6419169551
 H       -16.3649820213        5.7468899245      -14.8232756703
 H       -15.6461956266        4.4585895157      -13.9652160143
 H       -14.6547547353        5.4974317718      -19.8244053682
 H       -14.3831444142        7.2292133575      -19.2298655275
 H       -17.0314062220        7.4518979137      -19.3064279517
 H       -17.0242965376        6.1680657584      -20.4691779265
 H       -20.1895401969        7.1211714279      -21.9649592031
 H       -19.9348580671        8.3669355350      -23.0050693752
 H       -20.6927593525        8.7012580243      -21.3251371201
 H       -17.5938698687        9.1801065640      -23.9139675896
 H       -15.9304601239        9.3047675449      -23.3753751966
 H       -17.3132000911       10.3653114061      -22.6303120973
 H       -17.8697293294        6.1663876993      -22.4234032154
 H       -16.5263875014        6.5670461630      -23.3323595418
 H       -18.1084307391        7.0603068655      -23.7145362568
 H       -13.5298639903        8.0087539739      -17.0385665647
 H       -13.1631393538        7.1371568485      -15.5335552566
 H       -14.8268220857        7.8704768353      -15.9303583994
 H       -13.3529918810        4.5331905291      -18.2396711543
 H       -12.1717223918        5.0969830451      -16.9627704963
 H       -12.5796458224        6.1138126459      -18.1891534625
 H       -13.6567867473        8.1289777045       -9.8205150966
 H       -14.8118141704        8.0837252209      -11.1109837669
 H       -13.1805576789        8.6691438209      -11.4676593587
 H       -11.2533642648        5.6153784404      -11.3043910158
 H       -11.4782354000        6.9035711672      -10.0085509578
 H       -11.0970553589        7.3299396428      -11.7438699623
 H       -17.5561084517        2.4608315517      -10.2470739025
 H       -18.0014205537        0.6997326049      -10.4072325365
 H       -17.2206115942        1.5833695247      -11.6743206055
 H       -16.9504502535        0.8550722232       -8.0179736935
 H       -16.2261981368        2.4290186300       -8.0773686144
 H       -15.2051880987        0.9207528524       -7.8413758892
 H       -13.5271671645        0.2389821068      -15.5992060479
 H       -13.8625420807       -1.3257260062      -15.9587985864
 H       -12.1731748791       -0.7577699037      -16.2430911499
 H       -11.7657169841       -2.9440139273      -14.7498275659
 H       -13.5092863118       -3.0452335025      -14.4453167893
 H       -12.4814342945       -3.0045403001      -13.1574919022
 H        -7.5545958963        1.4079673026      -12.5161863769
 H        -6.0457498550        1.6244790853      -11.5803385789
 H        -7.5729095857        1.3990981332      -10.6990578452
 H        -5.7390242284       -0.4849351797      -13.7337824973
 H        -5.0558206846       -1.4961830334      -12.4534127610
 H        -4.6950140737        0.2284266377      -12.4544729030
 H        -5.2295429992       -3.1190599542       -6.0935281335
 H        -5.8805968086       -1.4715981914       -5.7857559860
 H        -4.7446297806       -2.2424007651       -4.7070366234
 H        -4.5439337319        0.5273300268       -6.2444203240
 H        -2.7096469169        0.4927313378       -6.4524976239
 H        -3.5365592036        0.0031348742       -4.8575270026
 H         2.5693682699       -1.5223693181       -8.4828443223
 H         3.7843425148       -2.8581828074       -8.6396974943
 H         3.8207426786       -1.7703871897       -7.2644785241
 H         2.1070598627       -4.2437522110       -8.8950790665
 H         0.7265375827       -3.6754884652       -8.5565835772
 H         1.3291620185       -5.0700720401       -7.5335859868
 H         5.7191228482       -8.6850634951       -3.5680237895
 H         4.7770649197       -8.0053167703       -4.8982874499
 H         4.5157970398       -7.5039758118       -3.1334365350
 H         7.2865017101       -4.9659159738       -3.6204844987
 H         7.8750250679       -6.5001486674       -2.9350902164
 H         6.5698836166       -5.7156474331       -2.1752784740
 H        10.8565543099      -11.7319106203       -7.9076846121
 H         9.4851297088      -10.6167953037       -8.3464969903
 H         9.2534444033      -12.3141822872       -8.0654914409
 H         8.8445216275      -12.3593303157       -4.4083362225
 H        10.3466305945      -12.9923337635       -5.1780654465
 H         8.8577560493      -13.1859216784       -6.0387767243
 H        15.2682742792       -8.4360311622       -1.0790443281
 H        15.3195842971       -9.3588506215       -2.5090806088
 H        13.9225836046       -9.5171184548       -1.4137527735
 H        13.2318260612       -6.7323083831       -0.7496496671
 H        13.0353674267       -5.6720915221       -2.1823508203
 H        14.5823264923       -5.7851891862       -1.5016666063
 H        13.8978929094       -8.6469307066       -7.2440894703
 H        15.4757109279       -7.6493463397       -7.6024076070
 H        14.6632923999       -8.6530301318       -8.8064295162
 H        15.3138586873       -5.1927415858       -8.0918045088
 H        13.8944409399       -4.5986432139       -8.9711129218
 H        14.9619731592       -5.8170474802       -9.7888085760
 Na       10.7032047950       -7.0708484503       -5.9987845914
 Na      -13.4511878927        2.5596844404      -13.6582111285
