232

 C        12.5894481034       -7.0041609385      -10.2416540077
 C        12.4543336278       -6.7645272007       -8.7327624296
 O        11.3210649695       -6.7825697629       -8.3069196963
 C        13.8093342602       -6.4244065490       -7.9505318284
 C        13.5857304193       -5.8838760547       -6.5716972256
 O        12.5144234353       -5.8962531806       -5.9725532855
 C        14.9197690585       -5.6548288698       -5.7841665187
 C        14.5983079096       -5.7412887222       -4.3044842659
 C        14.8862575739       -7.1575986165       -3.7070429768
 O        15.8246927091       -7.8561799762       -4.1291746115
 C        13.8987710549       -7.5675426783       -2.6100111400
 C        12.3881423042       -7.9935808783       -3.2403144444
 O        11.6472351577       -7.1568148414       -3.6792449665
 C        12.1789874908       -9.4819237214       -3.6681092657
 C        10.7180400067       -9.9849534239       -4.0725190194
 C        10.6071551355      -10.1592768605       -5.6325546393
 O        11.3597385792       -9.6043974911       -6.3540766503
 C         9.5193346832      -11.1538626874       -6.2487666209
 C         8.1742569632      -10.3494791605       -6.1350311371
 O         7.5177616939      -10.5019613420       -5.1608559862
 C         8.0012746883       -9.0501454950       -7.0710524965
 C         6.9328069292       -8.1372943175       -6.5092506970
 C         7.4310336556       -7.4561236836       -5.2835683566
 O         8.5872494358       -7.3193065861       -4.9255111402
 C         6.4679672230       -6.7069162493       -4.4127077537
 C         5.5422663042       -5.6594860541       -5.2037883084
 O         5.5692503778       -5.6266869965       -6.4096182065
 C         4.6125849410       -4.6344984520       -4.3558743379
 C         4.0147452657       -3.4611124122       -5.1604463869
 C         2.7642385713       -3.9332619403       -5.9504399092
 O         2.1212487500       -4.8796302639       -5.5146579985
 C         2.2105901314       -3.0841430072       -7.1381418367
 C         1.3208927922       -2.0194782784       -6.3441193727
 O         1.7763421536       -0.8902765579       -6.2052504719
 C         0.0055754849       -2.4495284363       -5.7322325828
 C        -1.2013218394       -2.1243854499       -6.6445704892
 C        -2.5252494075       -2.3765577943       -5.8984353566
 O        -2.5901834803       -3.2459199321       -5.0881785357
 C        -3.7552223181       -1.6184723121       -6.3595220403
 C        -3.8273238358       -1.6214473298       -7.9788447858
 O        -2.9617032329       -1.3049963042       -8.7506513593
 C        -5.0222563385       -2.4478035917       -8.5661589678
 C        -5.2590754260       -2.2042934970      -10.0919695301
 C        -6.1994231547       -0.9177109684      -10.2886556226
 O        -6.6593848741       -0.3514350020       -9.2830498496
 C        -6.5737208984       -0.3341414378      -11.7226185563
 C        -7.7984752510       -1.2430695992      -12.3349519757
 O        -7.7919960102       -2.4293235481      -12.2842310973
 C        -9.0454508297       -0.3441732055      -12.8898845524
 C       -10.3312700841       -1.1949163051      -13.1494615414
 C       -11.5590499184       -0.4339173954      -13.4737508332
 O       -11.7263608148        0.7491899218      -13.0832700290
 C       -12.9207033329       -1.1945337516      -14.0526683849
 C       -14.1208251139       -0.6673877374      -13.2484317849
 O       -14.5709571049        0.4490236857      -13.3905764317
 C       -14.8485925752       -1.5827269435      -12.2769455082
 C       -15.8149887859       -1.0089166881      -11.2885275412
 C       -15.1455343968       -0.0220156001      -10.3188471941
 O       -14.1736282893       -0.2792477953       -9.6274134878
 C       -15.8896151908        1.3768913279       -9.9124261736
 C       -14.8089065933        2.3805867328      -10.3261651254
 O       -14.7635456650        2.6950177643      -11.5316358645
 C       -13.8737817792        2.9867798235       -9.2964597771
 C       -12.9569254151        4.0828667090       -9.9778528642
 C       -13.6796747255        5.4405529816      -10.0980146064
 O       -14.6128811547        5.7666782042       -9.4548785780
 C       -13.0695515203        6.4075648136      -11.2333506090
 C       -13.5954143643        5.7566804264      -12.5003868391
 O       -12.8611790885        4.8004988594      -12.8509200442
 C       -14.8163074692        6.2850124683      -13.3258400527
 C       -15.4078278546        5.3891507204      -14.3882098543
 C       -14.5081178065        4.9078308887      -15.5968922150
 O       -14.0037316902        3.8047953372      -15.5760291085
 C       -14.1645594524        5.7444381107      -16.9515414350
 C       -15.4946187491        6.0651579127      -17.8249827587
 O       -16.5318242764        6.0867477303      -17.2292136329
 C       -15.2247410817        6.3968896333      -19.2941505409
 C       -16.4912196210        6.8451469578      -20.0426098750
 C       -16.2435344364        8.0779991977      -21.0338593476
 O       -15.2661201362        8.8707310083      -20.9312725138
 C       -17.3745016743        8.3519542548      -22.1687043212
 C       -18.7303623304        8.5373994432      -21.2750383432
 O       -18.6055412950        8.6785272323      -20.1030503851
 C       -20.0187993758        8.2286168991      -21.9237678483
 C       -16.7986966294        9.4988225571      -23.0934535865
 C       -17.6365040827        7.0980412211      -23.1084583505
 C       -13.8914021070        7.3091864164      -16.5749442170
 C       -12.8549003053        5.2127096232      -17.5590864380
 C       -13.6326823792        7.8289228050      -11.0654018733
 C       -11.5385574884        6.5608734573      -11.1788097289
 C       -17.2775215105        1.6102822163      -10.6112033205
 C       -16.1575538059        1.1976501880       -8.3729201489
 C       -13.1813413522       -0.6646460150      -15.5490067188
 C       -12.7891610601       -2.7240789446      -14.0498719054
 C        -7.0293873973        1.1644539530      -11.5694011450
 C        -5.3402612059       -0.5619063278      -12.6820157724
 C        -5.0133151112       -2.2231201287       -5.6974450834
 C        -3.5511300259       -0.1142445699       -6.0206163364
 C         3.2651232406       -2.3420898357       -8.0196374896
 C         1.3928967539       -4.0947602278       -8.1135282049
 C         5.2845863818       -7.7621612388       -3.9280199788
 C         7.0496610085       -6.0557572021       -3.1940609373
 C         9.7994800937      -11.4725673106       -7.6907876834
 C         9.4160264222      -12.4882431632       -5.4724196667
 C        14.5762178847       -8.7908325886       -1.8996817264
 C        13.7029229029       -6.4259940860       -1.6956750046
 C        14.4406245783       -7.8796347442       -7.8713711393
 C        14.6777412525       -5.5976981189       -8.8677020142
 H        12.9768500224       -6.1384433808      -10.6383917334
 H        11.7010218766       -7.2449349469      -10.8218623591
 H        13.2872721312       -7.8026313215      -10.3601151647
 H        15.3377526834       -4.7165978328       -5.9506629495
 H        15.5882448225       -6.4693602415       -6.0957413741
 H        13.4773857023       -5.6668761231       -4.3716667807
 H        15.1105991478       -4.8945207738       -3.8435034413
 H        12.5774312168      -10.1564986024       -2.9562127566
 H        12.7167320938       -9.6293785100       -4.6295347827
 H         9.8676766302       -9.3855581809       -3.6325408626
 H        10.7222402166      -10.9643314806       -3.6306325942
 H         7.5298198089       -9.4592341836       -7.9559841995
 H         9.0204649029       -8.5872390836       -7.1160725372
 H         6.0612754176       -8.7820350591       -6.3855115957
 H         6.6186495108       -7.3050547987       -7.2064684096
 H         5.1786802214       -4.2492961144       -3.4612921673
 H         3.7792545732       -5.2480630403       -3.9972397649
 H         4.6591793589       -3.1312331328       -5.9693686392
 H         3.7373174025       -2.6652787193       -4.4482382319
 H        -0.1506360053       -1.9668079288       -4.7523116409
 H         0.1065218101       -3.5241548080       -5.4259693942
 H        -1.2035991685       -2.8397057782       -7.4292731808
 H        -1.2537974569       -1.1177827253       -7.0305162429
 H        -5.9514491293       -2.3002438095       -8.0369849806
 H        -4.7645257427       -3.5767967329       -8.4470347993
 H        -5.9418158069       -3.0025191402      -10.3822275290
 H        -4.3873274633       -2.1064694410      -10.7566467856
 H        -8.6156815125        0.2113211047      -13.7570477593
 H        -9.2941738858        0.3615036367      -12.1127923917
 H       -10.5467111623       -1.8961376259      -12.2847039328
 H       -10.1691455864       -1.8357483928      -14.0568194742
 H       -14.0851447519       -2.1713595521      -11.7997401787
 H       -15.3219482815       -2.3510016673      -12.8510082408
 H       -16.1851164215       -1.8448068582      -10.6340924896
 H       -16.7027438079       -0.5433321666      -11.7942219653
 H       -13.3289769323        2.2007742949       -8.9103511031
 H       -14.4793108574        3.6995346811       -8.5857421353
 H       -12.6839974671        3.7642983588      -10.9411063432
 H       -12.0704702530        4.2194139337       -9.4244061208
 H       -14.4398923250        7.1703827627      -13.8395952532
 H       -15.6664858936        6.4591571068      -12.6439556727
 H       -16.3420647169        5.7414889903      -14.8451182248
 H       -15.6852491034        4.4442952830      -13.8483273459
 H       -14.9002062992        5.3739623513      -19.5603391791
 H       -14.3889154819        7.1483794004      -19.3907254977
 H       -17.3372455628        7.1547390026      -19.4682283517
 H       -16.8869690420        6.0189637757      -20.6650095686
 H       -19.9169733283        7.2607842450      -22.4029277295
 H       -20.1437187028        8.7635752215      -22.8170692665
 H       -20.7314287105        8.2701863877      -21.1706984202
 H       -16.9747240333        9.2174750592      -24.1383435447
 H       -15.6851723929        9.5451185193      -22.9442879541
 H       -17.3229367639       10.4133339637      -22.8911639238
 H       -18.0503229551        6.1302410791      -22.6332653041
 H       -16.6823446890        6.7231062944      -23.4622128291
 H       -18.3327471627        7.1955003918      -23.9175164749
 H       -13.6757093326        8.0734213161      -17.3049397188
 H       -13.1196270815        7.2944245653      -15.7936207319
 H       -14.8335197336        7.6507548055      -16.1307304011
 H       -13.1046472131        4.2686575730      -18.0202467662
 H       -12.0749765419        5.0809224751      -16.8555001918
 H       -12.3945019047        5.9177662881      -18.2784073233
 H       -13.3125318303        8.1441252603      -10.1164078284
 H       -14.7458893508        7.8542564349      -11.0696573945
 H       -13.2083022789        8.5041483827      -11.8242576219
 H       -11.0708792047        5.6245464643      -11.4665062953
 H       -11.3624911301        7.0491707533      -10.2056727505
 H       -11.2240355896        7.2448430654      -11.9414655535
 H       -17.5849760183        2.7365761527      -10.3967744808
 H       -18.0361976588        0.9641920672      -10.2079306067
 H       -17.3585488513        1.5236038403      -11.6566244762
 H       -17.0573535274        0.6079309812       -8.2419794184
 H       -16.2897462323        2.1069260483       -7.7852912959
 H       -15.3727106940        0.5670351046       -7.8522902067
 H       -13.4278042538        0.4194669870      -15.5465288244
 H       -14.0872668656       -1.0735191054      -15.8818359363
 H       -12.3402566541       -0.8273570792      -16.2576788850
 H       -11.9249360147       -3.1301231768      -14.4963061357
 H       -13.6197628569       -3.2949452977      -14.4942535563
 H       -12.8222441708       -3.0421216230      -13.0223272629
 H        -7.6288494186        1.5894877035      -12.4493334252
 H        -6.1296536790        1.7919559993      -11.3098124054
 H        -7.6952466245        1.1699080427      -10.7192333489
 H        -5.6361111817       -0.5725606199      -13.6529455093
 H        -4.9457087551       -1.5616677408      -12.4739374600
 H        -4.6801845788        0.2752199041      -12.5106835471
 H        -5.1566950319       -3.3455426530       -5.8969068679
 H        -5.9644301765       -1.6370367785       -5.9254510446
 H        -4.8617708246       -2.1183296489       -4.6234036429
 H        -4.2219880904        0.5359499125       -6.5626416650
 H        -2.4262752630        0.1782139840       -6.2969610634
 H        -3.7875356339        0.0473333831       -4.9390870648
 H         2.8206588895       -1.9247176451       -8.8551528256
 H         3.9880361727       -3.0697368658       -8.2867107496
 H         3.8106593448       -1.5770340362       -7.4250605404
 H         2.0923323220       -4.5715101407       -8.6834698151
 H         0.8835419039       -3.6172509363       -8.8813095472
 H         0.8640791269       -4.8179439476       -7.4836491430
 H         5.6291652040       -8.7218496315       -3.5663301511
 H         4.6014931648       -7.9714918537       -4.7917723725
 H         4.8948478419       -7.2521368868       -3.0147296286
 H         7.6623670362       -5.1456131835       -3.4148944295
 H         7.4965965265       -6.8028419509       -2.6169749728
 H         6.2541631385       -5.7492517782       -2.5058561091
 H        10.7781252609      -12.0235422489       -7.6499241611
 H         9.8694161394      -10.5437163112       -8.2189555067
 H         9.0518671473      -12.1016312077       -8.2024646566
 H         8.8575098539      -12.4089362569       -4.5494942344
 H        10.4712407573      -12.8062082694       -5.3055594637
 H         9.0040967442      -13.2132411045       -6.1911969196
 H        15.3776625401       -8.4879807472       -1.2124801473
 H        15.0972812758       -9.3317103055       -2.6711935434
 H        13.9514827440       -9.4011937202       -1.3590358650
 H        13.3292318714       -6.8256671747       -0.7678604307
 H        13.1175524134       -5.6602984912       -2.1713397443
 H        14.6454545739       -5.9769899951       -1.5108723228
 H        14.1321959759       -8.5291475014       -7.0375558952
 H        15.5313258184       -7.6812142351       -8.0188556589
 H        14.1321079966       -8.5311576713       -8.7011874588
 H        15.4932901061       -5.3777037779       -8.1942777692
 H        14.2053741734       -4.6662409356       -9.2303517481
 H        15.0406007144       -6.1314794531       -9.7674118966
 Na       10.6412528707       -7.3152637891       -5.9901154107
 Na      -13.4320874175        2.6147125965      -13.6756984499
