232

 C        12.4368149590       -6.7104801107      -10.2064058608
 C        12.4797228217       -6.6595730842       -8.7251372210
 O        11.4495381169       -6.8145928595       -8.0700347060
 C        13.8619925305       -6.5555106935       -7.9469861313
 C        13.6585759408       -5.7388934362       -6.4464951554
 O        12.5067560442       -5.6093201855       -6.0504662259
 C        14.8219022790       -5.3382258221       -5.6424479192
 C        14.5711252413       -5.5522900349       -4.1381286969
 C        14.6619812891       -7.1071081781       -3.7606868461
 O        15.4016339838       -7.8764760428       -4.3324936639
 C        13.6031236890       -7.7065780336       -2.5153908535
 C        12.4132168313       -8.2209580166       -3.4173053525
 O        11.6294836439       -7.4045340553       -3.9168647014
 C        12.2369356291       -9.7329647681       -3.6119110758
 C        10.7535867183      -10.0134962377       -4.1568875340
 C        10.7690324126      -10.1989772263       -5.7500070054
 O        11.5792890265       -9.6230868691       -6.4274872857
 C         9.5908435906      -10.9932099898       -6.3391108626
 C         8.2472548030      -10.1666639759       -6.3029073858
 O         7.4693937021      -10.5260693140       -5.4853651921
 C         8.0538498745       -8.9083062288       -7.2218598568
 C         7.0172209081       -7.8945062582       -6.5909815497
 C         7.5181401919       -7.2120765359       -5.3201963808
 O         8.6615035839       -6.9835338082       -5.1514126325
 C         6.3295017082       -6.6547009566       -4.3286812005
 C         5.5640624194       -5.5431006773       -4.9658337964
 O         5.3222651219       -5.6223141181       -6.1501286568
 C         4.9192639412       -4.2842993844       -4.2174693987
 C         4.1511391087       -3.3500601444       -5.1878804712
 C         2.9894695941       -4.0243025185       -5.9505891289
 O         2.5037951439       -5.1189640715       -5.7146210542
 C         2.3216387951       -3.1301897859       -7.1083518373
 C         1.5494725229       -1.8543507640       -6.6063682952
 O         1.8670929414       -0.6872464203       -6.8962641673
 C         0.2966504986       -2.1802832503       -5.7835345521
 C        -1.0424155128       -2.0863961522       -6.5927881848
 C        -2.3419086543       -2.4001115099       -5.8089293746
 O        -2.3921724169       -2.9931216534       -4.7867248752
 C        -3.8041175318       -1.7620052615       -6.4742104834
 C        -3.8996745155       -1.9765176686       -8.0636344160
 O        -3.1043766985       -1.4913174808       -8.7886458633
 C        -5.0796489947       -2.7617679356       -8.6945468251
 C        -5.3450527561       -2.2738173266      -10.1926892743
 C        -6.1487951830       -0.9509635215      -10.3598643058
 O        -6.4948080559       -0.3378170220       -9.3424102110
 C        -6.6543850241       -0.4047719053      -11.7964579973
 C        -7.9628757708       -1.1176057410      -12.2396771765
 O        -8.0009081275       -2.2919655824      -12.4672795011
 C        -9.2704473379       -0.3319383220      -12.4925403314
 C       -10.2794835324       -1.2686303600      -13.2376345273
 C       -11.6048891763       -0.4026973627      -13.4607592945
 O       -11.6615215791        0.7787284897      -13.1732243463
 C       -12.9426932403       -1.2611312354      -14.0203771280
 C       -14.2046019047       -0.8050326973      -13.0866357714
 O       -14.6768726849        0.3470571928      -13.2266751109
 C       -14.7635348098       -1.5973392699      -11.9444585171
 C       -15.9226734836       -0.8778341918      -11.2578868094
 C       -15.2877241871        0.0291243366      -10.1627103294
 O       -14.2414801115       -0.2742425142       -9.5998483107
 C       -15.9823042149        1.4134844153       -9.7849696243
 C       -14.8968503203        2.4905328983      -10.2376857786
 O       -14.8231351590        2.7910016482      -11.3902558400
 C       -13.9271269917        2.9988904881       -9.2457595869
 C       -12.8886946398        4.0235233654       -9.8960899307
 C       -13.4967936314        5.4292203368      -10.0958044096
 O       -14.1918855431        5.9906205210       -9.3178940978
 C       -13.0306066212        6.2458450455      -11.3340421801
 C       -13.6036062857        5.5848579227      -12.6350988297
 O       -12.9619277023        4.5916045493      -13.0325608924
 C       -14.7883625049        6.2012937227      -13.4259007304
 C       -15.4979403752        5.4032840397      -14.6320926699
 C       -14.4176593297        4.9219751897      -15.6810371051
 O       -13.9834605381        3.8202519022      -15.5178182867
 C       -14.0593039360        5.7862313098      -16.9281695140
 C       -15.4567812142        6.0479088931      -17.7406005733
 O       -16.5013037222        5.9470925465      -17.1839581364
 C       -15.3045609356        6.2506852736      -19.2842901723
 C       -16.6042763571        6.4815641129      -19.9657212552
 C       -16.5308154613        7.7945659069      -20.7777729069
 O       -15.5546297420        8.5392617845      -20.5413746791
 C       -17.4788071123        8.2538218234      -21.9010316846
 C       -18.8769019108        8.7160036741      -21.3035904985
 O       -18.7904535955        9.3592353407      -20.2953537694
 C       -20.1075714492        8.7910338222      -22.1974409547
 C       -17.0585398761        9.6909944425      -22.4657297471
 C       -17.3452621261        7.2747102134      -23.1254039710
 C       -13.3839256600        7.0355119849      -16.3765554004
 C       -13.0616011280        5.0554251164      -17.8720745969
 C       -13.4464823292        7.6827672976      -11.1578963926
 C       -11.4472954949        6.3002042424      -11.4097222559
 C       -17.3459021050        1.5350043587      -10.5062564349
 C       -16.3027076248        1.6385260772       -8.2656458966
 C       -13.0464687430       -0.6904849381      -15.4455551584
 C       -12.8566303665       -2.7476021916      -14.0893771824
 C        -6.7729768528        1.1179170182      -11.5684979131
 C        -5.6349196195       -0.7939095640      -12.9711861656
 C        -4.9689966829       -2.3809114283       -5.6413327924
 C        -3.6060437900       -0.2225905071       -6.2163175227
 C         3.5031963658       -2.6763845736       -8.0522869916
 C         1.4818141128       -4.0547908921       -7.9673383632
 C         5.3037301264       -7.8104841553       -4.0107651797
 C         7.0206940550       -6.1701093907       -3.0367690569
 C         9.8043572377      -11.3195545068       -7.8050518387
 C         9.3633430365      -12.2913701979       -5.5538006983
 C        14.4196128722       -8.8446558942       -1.9316323020
 C        12.9471481627       -6.6331143869       -1.5405372255
 C        14.4430031107       -8.0170420357       -7.6653356973
 C        14.9026437408       -5.7992781418       -8.8213655693
 H        12.9230172541       -5.8843666575      -10.7308038815
 H        11.3475344418       -6.4716789502      -10.4762583796
 H        12.7963247688       -7.6687702085      -10.5753310797
 H        14.8607200012       -4.2334361173       -5.9587319233
 H        15.7928748251       -5.7810466985       -6.0130786407
 H        13.5807316174       -5.1689828281       -3.9690666053
 H        15.3553221193       -5.1496947260       -3.5256960819
 H        12.2752359088      -10.1691333091       -2.6046198135
 H        12.9925642288      -10.2261919632       -4.2446249258
 H        10.1074655890       -9.2456652905       -3.7313595490
 H        10.5370126226      -11.0325027413       -3.7335034499
 H         7.4633647719       -9.3959723911       -8.0320742954
 H         9.0083267508       -8.3206420896       -7.3955055316
 H         6.0366034821       -8.3046947879       -6.5178676846
 H         7.0261454639       -7.1149705251       -7.4174216691
 H         5.7009735297       -3.6221831692       -3.8755036902
 H         4.3870834608       -4.5881090959       -3.3518231744
 H         4.8695903492       -2.9808904861       -5.9407296478
 H         3.6996109969       -2.5440232984       -4.5989225607
 H         0.2620971686       -1.5131062972       -4.9469766366
 H         0.4582040995       -3.1903503604       -5.3551124836
 H        -1.0201575893       -2.7829950448       -7.4557281467
 H        -1.1687882035       -1.1140315398       -7.0245404491
 H        -5.9132208062       -2.6588136932       -8.0384877520
 H        -4.8930505574       -3.7620943276       -8.8925204081
 H        -5.9570042943       -3.0811996461      -10.7321490506
 H        -4.4099749238       -2.0865062816      -10.6557626793
 H        -9.0096707032        0.5871011377      -13.0812526235
 H        -9.6908483494       -0.0736007938      -11.5282111051
 H       -10.6858551736       -2.0385194505      -12.6106630367
 H        -9.8311992798       -1.7593016031      -14.0095464257
 H       -13.9300200917       -1.7552728204      -11.1928587922
 H       -14.8863009846       -2.6633929966      -12.2196702723
 H       -16.5385542988       -1.5854248967      -10.8327431192
 H       -16.5512063287       -0.2083192641      -11.8831106163
 H       -13.2787048682        2.1922017274       -8.8630293678
 H       -14.5145746246        3.5943652143       -8.4470739061
 H       -12.3705138644        3.5786175695      -10.8042603670
 H       -11.9668739323        4.1553152836       -9.1990359208
 H       -14.4240402347        7.1645570739      -13.7575321596
 H       -15.6195748464        6.2749433398      -12.7193159115
 H       -16.2788376244        6.0135672526      -15.1181908598
 H       -15.9091689967        4.5098132696      -14.2011674772
 H       -14.9528807385        5.2443012864      -19.4816866106
 H       -14.5291417759        6.9835687840      -19.4669858571
 H       -17.4982255062        6.6084804238      -19.2966271938
 H       -16.9012297442        5.5907203825      -20.5525082150
 H       -19.7863939401        8.4500804199      -23.2241599768
 H       -20.3273678400        9.8204905972      -22.4951241529
 H       -20.9430460019        8.2442472970      -21.7270899530
 H       -16.2660876177        9.5111207164      -23.1180344481
 H       -16.7530207436       10.3352214462      -21.5842341848
 H       -17.8760414154       10.0393934053      -23.0759446256
 H       -17.6996528066        6.2846820072      -22.8281219423
 H       -16.4161996447        7.0852221166      -23.5905452939
 H       -18.0191007709        7.5327283201      -23.8350794672
 H       -13.1609087268        7.7456349739      -17.2089896309
 H       -12.4656090458        6.7605396445      -15.8628155050
 H       -14.0342195731        7.5619160133      -15.6518132518
 H       -13.2735291876        4.0051491553      -18.1339142944
 H       -11.9969414531        5.0737388392      -17.5038457333
 H       -13.0309565714        5.7176693276      -18.7145117197
 H       -12.8198471437        8.2589994677      -10.5711871787
 H       -14.5015769959        7.7190648765      -10.8353347508
 H       -13.3069887944        8.1381572312      -12.1638289249
 H       -11.0439818806        5.3826421994      -11.7170030717
 H       -11.2015407346        6.8037111083      -10.4825182308
 H       -11.1476007791        7.0055057258      -12.1944542154
 H       -18.0818915864        2.2867549344       -9.9777201557
 H       -17.8469712493        0.5474488357      -10.3734087199
 H       -17.3680968297        1.8625414596      -11.4755261048
 H       -16.7410503986        0.7468941917       -7.8162416704
 H       -16.8821017940        2.4881712043       -8.0716528101
 H       -15.4178589167        1.9147544229       -7.6120434717
 H       -12.8637894890        0.3967249882      -15.4287444023
 H       -13.8985691781       -0.9406859341      -15.9712074033
 H       -12.0760181230       -0.9917883865      -15.9891270188
 H       -12.2710423136       -2.9900042158      -15.0168418000
 H       -13.8504955369       -3.1632191523      -14.4286468073
 H       -12.5110987935       -3.3075500071      -13.2391606517
 H        -6.7118464044        1.5958281187      -12.5931367383
 H        -5.9601491916        1.4515731717      -10.9868284565
 H        -7.6221473736        1.3634550418      -11.0244853640
 H        -5.5348112826       -0.0265976468      -13.7299641364
 H        -6.1647917554       -1.6402933046      -13.4431625655
 H        -4.6312331662       -0.8570729948      -12.5289000928
 H        -5.1648324792       -3.3790631811       -5.9925225599
 H        -5.8929723204       -1.8833357929       -5.6021762945
 H        -4.6098417769       -2.4032373600       -4.7043639441
 H        -4.4773410780        0.3752162085       -6.3981735716
 H        -2.8745851961        0.1745485972       -7.0350471864
 H        -3.3768370724       -0.0211416762       -5.2160333155
 H         3.1762545547       -2.6116569090       -9.1049227239
 H         4.3227204186       -3.4368767021       -7.9982309167
 H         3.8867440586       -1.6451798935       -7.7942318859
 H         2.2061997137       -4.7125711019       -8.4368017501
 H         0.9722927490       -3.4890972239       -8.8144739470
 H         0.8337275921       -4.7241715934       -7.2737543472
 H         5.8444327567       -8.6537807117       -3.6690190954
 H         4.9527781546       -8.2409161750       -4.8978041068
 H         4.5113793033       -7.4434599581       -3.3251689282
 H         7.9277178858       -5.5569339036       -3.1512288658
 H         7.1379684812       -7.0486061565       -2.4927723557
 H         6.3207395138       -5.5367411614       -2.4272301731
 H        10.1798604037      -12.3316900310       -7.9254319918
 H        10.4169071291      -10.5586903529       -8.2960439915
 H         8.8671297322      -11.3145812650       -8.2597079125
 H         9.0175091475      -12.1757389428       -4.5503158688
 H        10.2421184551      -12.9184379352       -5.6990817921
 H         8.5231594378      -12.7111369374       -6.0765958903
 H        15.3228991186       -8.5592796878       -1.3398594872
 H        14.8270038412       -9.3800523101       -2.8426329485
 H        13.9231271825       -9.5062582964       -1.2218196253
 H        12.1831919306       -7.2437929308       -1.0024892211
 H        12.4970637146       -5.8165514893       -2.0736996982
 H        13.6623024322       -6.3345501322       -0.7379026694
 H        13.7833930355       -8.5145837272       -6.9266488008
 H        15.5051760888       -8.0580424813       -7.3722118620
 H        14.1803422026       -8.5624310542       -8.5357998780
 H        15.9037695603       -5.7760829901       -8.3650847583
 H        14.5191303808       -4.8647522669       -9.1446302388
 H        14.8087242286       -6.2380376153       -9.7765642499
 Na       10.9019709761       -7.3118240746       -5.9803415778
 Na      -13.6480494420        2.3138645582      -13.5161255418
