232

 C        12.5477581649       -6.5181035817      -10.1103100320
 C        12.4260724871       -6.6718440293       -8.6531383925
 O        11.3770618256       -6.9723392441       -8.1158641340
 C        13.7549220302       -6.5511535651       -7.8783599589
 C        13.6434210941       -5.8382781013       -6.4688845793
 O        12.5709975741       -5.4868785787       -6.0339630616
 C        14.8560160915       -5.4358063354       -5.5520820528
 C        14.4223379930       -5.6238572008       -4.0760690148
 C        14.4498477061       -7.1064524343       -3.7525339503
 O        15.2073080914       -7.8168172826       -4.4337099228
 C        13.6372545397       -7.7563388330       -2.6558556360
 C        12.4359937775       -8.2983034355       -3.4390961908
 O        11.7280826123       -7.4186894793       -3.8986224605
 C        12.1619833331       -9.8023781583       -3.6303957369
 C        10.7009087741      -10.1019233947       -4.2260079493
 C        10.7654456002      -10.2121527678       -5.7715791996
 O        11.6448911926       -9.6427969428       -6.3215796062
 C         9.5290535405      -10.9524257972       -6.4594511127
 C         8.2353908118      -10.0565935062       -6.2577338574
 O         7.3194603461      -10.3905803448       -5.5077082391
 C         8.1024226395       -8.8454585971       -7.2347702781
 C         7.0172322965       -7.9007818116       -6.5903771316
 C         7.5340427894       -7.1246415077       -5.3312846846
 O         8.7333293095       -6.8596393151       -5.1194015409
 C         6.4292290430       -6.7127022326       -4.3454580384
 C         5.5214513095       -5.5045576180       -5.0969986169
 O         5.2608993777       -5.5733120606       -6.2789948064
 C         5.0481469215       -4.3267177403       -4.2490791527
 C         4.2171391189       -3.3200774748       -5.0638586978
 C         3.0577079160       -3.9456605298       -5.9648485996
 O         2.6643808491       -5.0551616475       -5.7126040516
 C         2.4482937110       -3.2205391913       -7.2226726146
 C         1.4871083359       -1.9358058245       -6.6967962026
 O         1.8800160427       -0.8575991995       -7.0114485132
 C         0.2162615727       -2.0754120449       -5.7888364766
 C        -1.0383950652       -1.9472276764       -6.6711353033
 C        -2.3575872237       -2.3046826287       -5.9131774699
 O        -2.3224634708       -2.8818600709       -4.8180889208
 C        -3.6916813733       -1.8396116816       -6.5385417202
 C        -3.8997613362       -2.0075184312       -8.0561247656
 O        -3.0418643536       -1.5760594395       -8.8319997803
 C        -5.1881500503       -2.8194288721       -8.7844520437
 C        -5.3426796968       -2.2839400728      -10.2329985357
 C        -6.2273968432       -0.9985729129      -10.2668793038
 O        -6.5542508446       -0.3176102668       -9.3085622161
 C        -6.5964801711       -0.4944615376      -11.7509246476
 C        -7.9955188158       -1.1684651262      -12.0931688522
 O        -7.8934551507       -2.3236385033      -12.4473159252
 C        -9.2973876599       -0.2798060660      -12.3081554752
 C       -10.3600486621       -1.1198617847      -13.0975666266
 C       -11.6301978663       -0.4673001902      -13.2935909058
 O       -11.7061392330        0.7900335176      -13.3088628715
 C       -12.8720780305       -1.1433428406      -13.9602230497
 C       -14.1783275473       -0.7474893320      -13.0849831021
 O       -14.7165408942        0.2776700156      -13.3470426555
 C       -14.7117446822       -1.7165281418      -12.0033819753
 C       -15.8203981284       -0.9544494597      -11.2110513772
 C       -15.3200645722        0.0838190742      -10.0850250828
 O       -14.3124726143       -0.1824826384       -9.4861623049
 C       -16.0667290675        1.4774134323       -9.7411733219
 C       -14.9428259363        2.6088000478      -10.2563850858
 O       -14.8391486978        2.8836237086      -11.4627040719
 C       -13.9589304485        3.1101100426       -9.1684762509
 C       -12.8473411274        3.9816201275       -9.8845356509
 C       -13.3720953859        5.3834075371      -10.0439479461
 O       -14.1249886458        5.8872473849       -9.2420121819
 C       -12.9564135661        6.3039113478      -11.4323024885
 C       -13.5378881096        5.5589407713      -12.7265184047
 O       -13.0416945947        4.4641492446      -13.1312880002
 C       -14.7662112866        6.1840678801      -13.4512992977
 C       -15.3885964999        5.3544701905      -14.5804648881
 C       -14.4545578258        4.7408694083      -15.6557721927
 O       -13.7869523036        3.7565166313      -15.4678446402
 C       -14.0768269491        5.7537397772      -16.9331390962
 C       -15.4135512716        5.8894541382      -17.7713054273
 O       -16.5092840700        5.9983862116      -17.1954863716
 C       -15.3632050489        6.1233850067      -19.3311643492
 C       -16.7348304399        6.4853113023      -20.0199315441
 C       -16.5100426679        7.8365729007      -20.7268511744
 O       -15.4978972502        8.5397384492      -20.4553189516
 C       -17.5221784224        8.3285330442      -21.7688510165
 C       -18.9215895820        8.8586086331      -21.3031536827
 O       -19.0255247093        9.3983931674      -20.2435357892
 C       -20.0831533059        8.8875412777      -22.3069817311
 C       -16.9265557516        9.6975100093      -22.2981973440
 C       -17.4272401847        7.2634319249      -22.9142175137
 C       -13.3598064189        6.9529933256      -16.3525790017
 C       -13.1111900997        4.9828594075      -17.8560805437
 C       -13.4617177926        7.7708633947      -11.2165526766
 C       -11.3984620378        6.1502868656      -11.4884403775
 C       -17.3933785971        1.5181831856      -10.4723549980
 C       -16.2266680412        1.7176854665       -8.2409303656
 C       -13.2004389986       -0.5584498375      -15.3821588383
 C       -12.7353417018       -2.6864706207      -13.9408478727
 C        -6.8143500813        1.0627098668      -11.7872234615
 C        -5.6574358979       -0.9373983196      -12.8958109703
 C        -4.8360946205       -2.4560376639       -5.7225210834
 C        -3.6973453848       -0.2756923980       -6.2897161878
 C         3.5788726220       -2.6866479755       -8.0781576054
 C         1.5475656385       -4.2331171408       -7.9779325231
 C         5.3438748667       -7.8035459611       -4.0395067703
 C         7.0271513074       -6.1533133646       -2.8942476608
 C         9.8825827261      -11.3545539163       -8.0107527547
 C         9.3185073434      -12.2919200762       -5.6436985421
 C        14.5491275510       -8.6487096633       -1.8080634527
 C        12.8978086253       -6.7724984085       -1.7272283948
 C        14.3221189612       -7.9538874664       -7.5749292737
 C        14.9566686152       -5.8503656217       -8.6717216716
 H        13.0895100931       -5.6962624012      -10.4529160182
 H        11.6254466180       -6.4162518278      -10.5994828396
 H        13.1056450006       -7.4305810014      -10.3881130715
 H        15.0444660383       -4.4003306570       -5.8003039360
 H        15.8317390387       -5.9632811672       -5.6581858155
 H        13.3806604543       -5.2182508825       -4.0031383274
 H        15.1305363511       -5.2082530199       -3.3682038488
 H        12.3500640589      -10.4078566786       -2.7834337501
 H        12.8786179300      -10.1089415278       -4.4297194363
 H        10.0639244265       -9.1986837505       -3.9163342367
 H        10.3504711491      -10.9909553638       -3.7435066322
 H         7.6126814743       -9.3953125811       -8.0830749046
 H         9.0623934129       -8.2488966775       -7.3300892931
 H         6.1846931178       -8.5734965225       -6.2336845600
 H         6.6229856259       -7.2602000472       -7.4208038730
 H         5.7810786676       -3.8043322340       -3.6431547290
 H         4.4501290383       -4.8531078257       -3.5372416599
 H         4.8979458144       -2.9052119906       -5.7934608268
 H         3.8021300150       -2.5668526958       -4.3809325286
 H         0.2523462196       -1.2491794371       -5.0552920544
 H         0.2413749063       -3.0340788868       -5.2542893367
 H        -1.0020774760       -2.5421925804       -7.5015009517
 H        -1.1107763201       -0.9414165266       -7.1141476081
 H        -6.0656646626       -2.7027536055       -8.2757907399
 H        -4.9253668558       -3.8950206262       -8.9466259727
 H        -5.9759532371       -2.9299777864      -10.8344320030
 H        -4.3732656285       -2.0549564187      -10.7199458032
 H        -9.0670739434        0.6392112423      -12.8920178236
 H        -9.6037769552       -0.0420338512      -11.2991921680
 H       -10.6074661841       -2.1254477440      -12.8489837187
 H        -9.9178437911       -1.2430917518      -14.0978513618
 H       -13.9727807223       -2.2470554511      -11.3983855835
 H       -15.0999981118       -2.5742849394      -12.5568867672
 H       -16.4511518930       -1.7360607479      -10.7066191315
 H       -16.4782070812       -0.4273255372      -11.8848289285
 H       -13.4343876686        2.3189964172       -8.7404324653
 H       -14.5750019972        3.7768622434       -8.3958831154
 H       -12.5875844556        3.5234340425      -10.8395727079
 H       -11.8618010609        4.0095922534       -9.4181618749
 H       -14.2986148991        7.0368662981      -13.9340842086
 H       -15.6310618082        6.4922192353      -12.8573652997
 H       -16.0727970394        6.0275838940      -15.0613417011
 H       -15.9070328152        4.5249649817      -14.1064881709
 H       -14.8211912348        5.2277646702      -19.6882626524
 H       -14.6356460218        6.9765572373      -19.3026787936
 H       -17.5517848431        6.5401252062      -19.2911110362
 H       -17.1401642905        5.7287028021      -20.7453195737
 H       -19.7584154372        8.7188900514      -23.3390637312
 H       -20.4866545627        9.8955160495      -22.3888872672
 H       -20.8019525795        8.1898991681      -21.9134440648
 H       -15.8123936886        9.5455939696      -22.3914595891
 H       -17.1918047081       10.4463647075      -21.5743885111
 H       -17.2899596047        9.8357463887      -23.2862002732
 H       -17.7917346046        6.2765373436      -22.6745324910
 H       -16.4524403228        7.1132461187      -23.2281825804
 H       -17.8825870902        7.5775616769      -23.8403760912
 H       -12.8406004072        7.5944222620      -17.0776339683
 H       -12.6318719160        6.5664532707      -15.5845032212
 H       -14.0883745958        7.5356447500      -15.7535140201
 H       -13.5633440053        4.2067961968      -18.4562721515
 H       -12.2869619109        4.5141227049      -17.3906576951
 H       -12.7514657236        5.8379406491      -18.5191998777
 H       -13.1435007061        8.2018690017      -10.2891864770
 H       -14.5490359416        7.6950406532      -11.2521075775
 H       -13.0624717384        8.4527824422      -11.9368637322
 H       -11.2144550899        5.1069186679      -11.8600194392
 H       -11.0789884309        6.4468407100      -10.4818981461
 H       -10.9354831405        6.8224026900      -12.1762806108
 H       -18.0586140384        2.3978506419      -10.2491887153
 H       -17.9873855788        0.6467712090      -10.2989172638
 H       -17.1618099903        1.7037818679      -11.5531599533
 H       -16.9179324126        0.9716834556       -7.8514918480
 H       -16.4398706365        2.7330472911       -7.8458504218
 H       -15.2842609798        1.5459197638       -7.7051323337
 H       -13.4810742447        0.4934531452      -15.4847222402
 H       -13.9185298842       -1.2798797486      -15.7939875850
 H       -12.3116527852       -0.5736972212      -15.9580552521
 H       -11.9197967453       -2.9599149752      -14.5667358203
 H       -13.5831507108       -3.2468887620      -14.4132350773
 H       -12.5306150218       -3.0902978598      -12.9187211263
 H        -7.2453606650        1.3200533750      -12.7409229832
 H        -5.9242332975        1.7538089334      -11.5660688502
 H        -7.4407001233        1.1933190215      -10.9187706678
 H        -5.7580412236       -0.2186780091      -13.6228282565
 H        -6.0895342883       -1.8180227650      -13.3259947575
 H        -4.6262374610       -0.8555164856      -12.5964806663
 H        -5.1787171315       -3.3430879255       -6.1488109329
 H        -5.6749367925       -1.8178881887       -5.6895205374
 H        -4.4969565479       -2.5526815849       -4.6857229664
 H        -4.7391517989        0.0220826844       -6.1385680194
 H        -3.4494244509        0.2477461613       -7.2015471782
 H        -3.2089696001        0.1331634872       -5.3109875277
 H         3.1246288993       -2.1992892596       -8.9272754382
 H         4.2253365834       -3.4834113723       -8.4475898110
 H         4.1394553056       -1.8316788183       -7.5765767069
 H         2.0664997387       -4.8712551541       -8.7050788116
 H         0.7412967563       -3.6628906061       -8.4242549736
 H         1.1770461522       -4.8646487564       -7.1614660498
 H         5.6597347939       -8.7612887062       -3.7373832992
 H         4.8821196873       -8.0850031281       -5.0413708793
 H         4.6000456618       -7.2601323894       -3.4699210781
 H         7.6278710156       -5.2272284612       -2.8955993929
 H         7.5476744976       -6.9846341173       -2.4433625386
 H         6.1771800535       -5.9380284185       -2.2711558435
 H        10.5400921008      -12.2251332303       -7.9904600561
 H        10.2663984122      -10.5947577723       -8.5950837931
 H         8.9389024694      -11.7263126244       -8.4410747687
 H         8.9022596267      -12.1449793016       -4.6715000503
 H        10.1762501919      -12.9598223291       -5.6900622213
 H         8.4461401320      -12.7131303040       -6.1493893209
 H        14.9108224462       -8.1552372473       -0.8712692494
 H        15.4264421984       -8.9560229927       -2.3552083551
 H        14.0812809666       -9.5107952658       -1.4044679175
 H        12.1231032043       -7.3882603505       -1.2502306146
 H        12.4170675026       -5.8866089212       -2.2253433017
 H        13.5684237672       -6.5371604603       -0.9350340873
 H        13.5303651877       -8.6640670447       -7.2714976319
 H        15.1559945400       -7.9406283109       -6.8173510887
 H        14.5831146159       -8.2946557660       -8.6266321932
 H        15.8186342659       -5.7782135297       -8.0843875513
 H        14.5262085964       -4.9126899864       -9.0435644460
 H        15.0252258583       -6.3269786864       -9.6492233188
 Na       10.9094691250       -7.0967263839       -6.0058717893
 Na      -13.7221480685        2.2875170717      -13.5505380120
