232

 C        12.6023938344       -6.3424617586      -10.1731127015
 C        12.5001402685       -6.6876100736       -8.6094948282
 O        11.4049619853       -7.0857151002       -8.2621390844
 C        13.8075218579       -6.5395879874       -7.7243617277
 C        13.5835115476       -5.7505079552       -6.4360987045
 O        12.4981919402       -5.3787185233       -6.0667518386
 C        14.8279883920       -5.4148590187       -5.5436026847
 C        14.3853506461       -5.5904130925       -4.1278507425
 C        14.4724676393       -7.1259846822       -3.7540773867
 O        15.0279333443       -7.8638592030       -4.5140948625
 C        13.6124664772       -7.7788563657       -2.5947242031
 C        12.4425191666       -8.4019917278       -3.5131666768
 O        11.6832594662       -7.5848940741       -3.9986894008
 C        12.1116837373       -9.8643247724       -3.7004746391
 C        10.7308429889      -10.1505630356       -4.2406918441
 C        10.6957769969      -10.1923445380       -5.7086366454
 O        11.5856087997       -9.6561843470       -6.4198348218
 C         9.4962296537      -11.0154640908       -6.4735975933
 C         8.2480878383      -10.0823563169       -6.4197232265
 O         7.4024722889      -10.2664150872       -5.5440869004
 C         8.1455769227       -8.7521860268       -7.1975202772
 C         7.0972807390       -7.8136501257       -6.5140794668
 C         7.4619410058       -7.1277857416       -5.2732344083
 O         8.6844703087       -6.7664330434       -5.1092534465
 C         6.3514513308       -6.6059640895       -4.4295118776
 C         5.5449775552       -5.4340406303       -5.1706321147
 O         5.3971953063       -5.6407234271       -6.3482912453
 C         4.9969090967       -4.3447644311       -4.3230426558
 C         4.2479448622       -3.2791692116       -5.0843277722
 C         3.1554508929       -3.9746842828       -5.9326495488
 O         2.7868203287       -5.0465812996       -5.5225338169
 C         2.4586148963       -3.2033038034       -7.1617705135
 C         1.5950809870       -2.0449516367       -6.7356221569
 O         1.8889859369       -0.9486550247       -7.1319531705
 C         0.2563064392       -2.1448640159       -5.9554714545
 C        -0.9860495719       -1.8520176460       -6.8019839547
 C        -2.3334472103       -2.2364143477       -6.0399089602
 O        -2.2119530384       -2.7567392405       -4.9528505497
 C        -3.8012963228       -1.8509712776       -6.6452179696
 C        -3.8529762146       -2.0893800746       -8.1528478084
 O        -2.9653987376       -1.6774231003       -8.9003559963
 C        -5.1049709276       -2.6755674457       -8.7088484033
 C        -5.3837683086       -2.2669149755      -10.1557375244
 C        -6.2321317054       -0.9717858930      -10.2951104887
 O        -6.5944959915       -0.3969478527       -9.3378673455
 C        -6.6765108170       -0.5003824696      -11.7993485299
 C        -8.0158119379       -1.2259714606      -12.1316585259
 O        -8.0424599619       -2.4440407713      -12.3531825313
 C        -9.2835898945       -0.4004231332      -12.1177491817
 C       -10.3607596893       -1.0910747865      -12.9669982152
 C       -11.6595467597       -0.2348557217      -13.3683282538
 O       -11.7913132655        0.9634540700      -13.3061857232
 C       -12.9409802065       -1.1214350679      -13.9081282042
 C       -14.2165068941       -0.7392970256      -13.0705976468
 O       -14.8266923482        0.2556870876      -13.3530611173
 C       -14.7592445521       -1.6035751826      -11.9570711609
 C       -15.8018347689       -0.9317432107      -11.0797742493
 C       -15.2128304273        0.1618908231      -10.0466608446
 O       -14.2952654712       -0.1254750859       -9.3185881536
 C       -15.9835482824        1.4908996934       -9.8144394110
 C       -14.9974686111        2.5605350651      -10.2764332942
 O       -14.9735486316        2.9005367232      -11.4610086015
 C       -13.9986038283        3.1286245899       -9.3293065630
 C       -12.8695706791        3.9367684914       -9.9961597987
 C       -13.3793707625        5.3955644417      -10.1737116165
 O       -14.0415890236        5.9042189210       -9.2593846462
 C       -12.9716041283        6.1956873513      -11.3947757366
 C       -13.5117413093        5.5278727896      -12.7002226023
 O       -13.0441107846        4.4890894137      -12.9898081450
 C       -14.6964690401        6.1742378596      -13.4415612322
 C       -15.2155907223        5.2402263956      -14.5243010519
 C       -14.2902215013        4.7359524287      -15.6104814047
 O       -13.7425646359        3.6149890435      -15.5609191460
 C       -14.1251832007        5.5473926931      -16.9306709534
 C       -15.4794642340        5.9360054117      -17.7272815517
 O       -16.5471819773        6.0444040541      -17.1897754354
 C       -15.3665520678        6.0098946369      -19.3031341172
 C       -16.7218006575        6.5620331118      -19.8905255593
 C       -16.4911846149        7.9743490564      -20.5502060249
 O       -15.4745955947        8.4874058210      -20.3221363360
 C       -17.4405350510        8.5166298448      -21.7637406273
 C       -18.9647816866        8.9422316468      -21.2890927217
 O       -19.2546101970        9.3071362686      -20.1460152251
 C       -20.0589793375        8.9090080012      -22.4020083675
 C       -16.7186368743        9.7947979498      -22.3327304188
 C       -17.6407306477        7.3407989436      -22.7375520240
 C       -13.5406977812        6.8896093273      -16.4741417891
 C       -13.0251676968        4.7640855754      -17.8180683626
 C       -13.3869158285        7.6323757618      -11.3238355561
 C       -11.3690802529        6.0640402277      -11.5584548007
 C       -17.3693535311        1.6700157027      -10.5130851749
 C       -16.2020650874        1.5663856930       -8.2777577988
 C       -13.2233899194       -0.6244808452      -15.2846545082
 C       -12.5987479662       -2.6716569145      -13.8506479663
 C        -6.7488185553        1.0921314215      -11.8719308506
 C        -5.5316136006       -0.9556258809      -12.7319392674
 C        -4.8464998472       -2.6036459748       -5.7556632614
 C        -3.8404119332       -0.3114424161       -6.3857945898
 C         3.5765654938       -2.6409931914       -8.1107058522
 C         1.5646081775       -4.3286611578       -7.9364953093
 C         5.4281276423       -7.6890522055       -4.0814544550
 C         6.9961809269       -6.2413942415       -3.0664127049
 C         9.9169605769      -11.2097854701       -7.8904777974
 C         9.2270312975      -12.3876990337       -5.8062337224
 C        14.5987190460       -8.6522301327       -1.7132276806
 C        12.9174018241       -6.6961529487       -1.6423375880
 C        14.2069693413       -8.0748698036       -7.4394248039
 C        14.9602830516       -5.7858030814       -8.4784018336
 H        12.8708508927       -5.3235305585      -10.3869539048
 H        11.6897509434       -6.4386116310      -10.6426754072
 H        13.3598579366       -6.9288695400      -10.6343975198
 H        15.4261974560       -4.5507057225       -5.6845645644
 H        15.5478220582       -6.2000658308       -5.6354450112
 H        13.2969798969       -5.3456501651       -4.0585894231
 H        15.0235379869       -4.9807930534       -3.4380113211
 H        12.2018790427      -10.4088622338       -2.7595667820
 H        12.8428917717      -10.3149951988       -4.3631783273
 H        10.1389815179       -9.2508001168       -3.9390740007
 H        10.3390588618      -11.0401233657       -3.7523444740
 H         7.8586091884       -8.8990251223       -8.2280535450
 H         9.0733126763       -8.3019525465       -6.9509890699
 H         6.1453309158       -8.4056125298       -6.3206470100
 H         6.8701793801       -7.0422701027       -7.2437325350
 H         5.7648392071       -3.9131433771       -3.6500140435
 H         4.3212308498       -4.8715905477       -3.5739027198
 H         4.9239207015       -2.6417629896       -5.6417174825
 H         3.6228752084       -2.7279650611       -4.3780609848
 H         0.3609033419       -1.3105051377       -5.2012134347
 H         0.1143772714       -3.0896803554       -5.4342860652
 H        -1.0290959159       -2.3394242631       -7.7702098400
 H        -0.9675300266       -0.7892171212       -7.1513789523
 H        -5.9532498700       -2.3727382146       -8.0085586539
 H        -4.9096807583       -3.7880154320       -8.7093396435
 H        -5.9452223387       -2.9479085440      -10.7203115251
 H        -4.3859691535       -2.0169534674      -10.6164159589
 H        -9.1424737209        0.6028374930      -12.4588200447
 H        -9.5542999238       -0.4367242606      -11.0358140281
 H       -10.8002436882       -2.0718494974      -12.6590143160
 H        -9.7898306540       -1.4004864100      -13.9334806667
 H       -14.0158851746       -2.1005617729      -11.3850539591
 H       -15.1933272442       -2.4609972373      -12.4671494648
 H       -16.1778950224       -1.8032491743      -10.4138877524
 H       -16.6769459918       -0.5502328458      -11.6057992677
 H       -13.4592556274        2.3783652191       -8.6894263365
 H       -14.4604754515        3.8469580981       -8.7173313274
 H       -12.3479369220        3.4570362906      -10.7846218227
 H       -12.0906259421        4.0349836224       -9.3150483610
 H       -14.4182362295        7.1464062240      -13.9027874883
 H       -15.5737525919        6.3437299643      -12.7966391489
 H       -16.0831718827        5.7585087844      -14.9549501943
 H       -15.4637691089        4.3026183599      -14.0029582752
 H       -15.1233849914        4.9477763026      -19.5089050911
 H       -14.4297584846        6.6051010790      -19.4064535009
 H       -17.4652911734        6.3535233197      -19.1344595665
 H       -17.0796939985        5.9542401367      -20.7139829529
 H       -19.6738586084        8.9497449935      -23.3765013117
 H       -20.6347814590        9.8301805534      -22.2742920394
 H       -20.6906879950        8.0540276050      -22.1970712964
 H       -15.6102239766        9.7632979869      -22.1674936363
 H       -17.2056652166       10.5650750983      -21.8160280434
 H       -16.8838724897        9.8087263740      -23.4240757077
 H       -18.2088505033        6.5218823504      -22.3803529941
 H       -16.6215556669        6.9492480851      -22.9649985296
 H       -17.8940561668        7.5938782593      -23.8126727820
 H       -12.9495523558        7.2848953081      -17.3103634891
 H       -12.8812296775        6.7969503794      -15.5845779728
 H       -14.3231160690        7.5903988349      -16.1585671735
 H       -13.3869418799        4.0657553602      -18.5695616321
 H       -12.4148705909        4.1289527220      -17.2005647428
 H       -12.4191968479        5.5179933525      -18.3110747954
 H       -13.2659855379        7.9428542181      -10.2417879919
 H       -14.4050568712        7.7067040371      -11.5720745070
 H       -12.7563899796        8.3165794080      -11.8189214961
 H       -11.1816636247        5.0486900073      -12.0087610165
 H       -10.9117282827        6.3244627200      -10.6073607321
 H       -11.0937077300        6.8339601316      -12.2947762594
 H       -17.7412832892        2.5967764892      -10.3835767488
 H       -18.1177408388        0.9972714024      -10.0977270343
 H       -17.2559245268        1.6219865770      -11.6637621878
 H       -17.2021869752        1.1636281614       -8.0784709786
 H       -16.0500498539        2.5846719605       -7.8063505377
 H       -15.5229751766        1.0397385885       -7.6738370560
 H       -13.6098429381        0.3635080533      -15.3656754555
 H       -13.8340880285       -1.4184981742      -15.8216791959
 H       -12.3059849651       -0.5154049547      -15.7728269863
 H       -11.6057095010       -2.7770873523      -14.2844828554
 H       -13.2313787441       -3.3130403889      -14.4090504932
 H       -12.5052106458       -3.0409940273      -12.8080039209
 H        -7.2507262674        1.4054808433      -12.7615912320
 H        -5.7202466859        1.5094905070      -11.9231059216
 H        -7.0787491185        1.4707534399      -10.8231710210
 H        -5.7530551229       -0.6481703608      -13.7540440484
 H        -5.5559236974       -1.9861694957      -12.7171048660
 H        -4.6791622149       -0.4536263219      -12.4193083336
 H        -4.9992969888       -3.5946094417       -6.1631125440
 H        -5.8317328798       -2.1202570451       -5.8920636568
 H        -4.6324889824       -2.5646830973       -4.6357071018
 H        -4.8723459706        0.0991270919       -6.0934632511
 H        -3.5581445614        0.2408394799       -7.2383059219
 H        -3.2232420136       -0.0449142037       -5.4777680724
 H         3.0920780031       -1.8946844132       -8.7575769065
 H         3.9798620083       -3.4156241651       -8.7417825119
 H         4.3125042424       -2.0860685784       -7.6135245384
 H         2.2438143030       -4.8489562661       -8.6504415713
 H         0.7750401340       -3.7636375429       -8.3954407366
 H         1.1678803159       -5.0340303310       -7.3162055752
 H         5.9923242346       -8.6521736378       -3.9772465154
 H         4.7801657866       -7.9846626820       -4.9428671456
 H         4.7956495023       -7.3089750262       -3.3078059402
 H         7.3156733296       -5.2363474941       -3.1318233393
 H         7.9090600275       -6.9128444212       -2.8631579995
 H         6.2854864936       -6.2836322071       -2.2681855463
 H        10.8717895885      -11.6708090577       -8.0101510767
 H         9.9185931418      -10.2407650096       -8.4048907494
 H         9.1382290363      -11.8535779053       -8.3575935292
 H         8.6106658062      -12.1515267329       -4.9140109014
 H        10.1135986544      -12.9698131782       -5.5876585024
 H         8.4769238939      -12.9369536925       -6.3892800230
 H        14.6800820825       -8.2116719695       -0.7667007469
 H        15.5623321870       -8.8343504728       -2.0803752851
 H        14.1897058558       -9.6386436988       -1.4639451325
 H        12.2384446816       -7.1001175440       -0.9197100859
 H        12.3424703577       -6.0284666845       -2.3193070103
 H        13.7185893163       -6.1872814372       -1.1343703964
 H        13.2663257588       -8.6667033913       -7.4620476144
 H        14.6144415624       -8.2110838546       -6.4082833567
 H        14.8378164515       -8.4714671560       -8.3151331311
 H        15.8093908057       -5.6706404130       -7.8078443871
 H        14.5214618504       -4.8488451507       -8.8350760832
 H        15.1855535343       -6.2971495505       -9.4176601523
 Na       10.8212598052       -6.9527940843       -5.9638987308
 Na      -13.7448789264        2.3251105001      -13.5988799728
