232

 C       -18.8845827646       -7.1623053898       -2.3022253637
 C       -18.4591800209       -8.6156506248       -1.9613364876
 O       -17.5044990557       -9.0658009169       -2.5337293020
 C       -19.1651495122       -9.4880384379       -0.9464538224
 C       -18.1486284307      -10.2414117430       -0.0905864583
 O       -17.6993116880      -11.2766812992       -0.4802796462
 C       -17.6619615603       -9.5972182746        1.2416826216
 C       -16.1899731121       -9.5832444695        1.3839132514
 C       -15.4965965694       -8.5358502837        0.4420247467
 O       -16.1404785453       -7.7188700209       -0.2169458409
 C       -13.9655906053       -8.6054158219        0.2551398953
 C       -13.9055524580       -9.5941394452       -1.0208338534
 O       -14.5342573434      -10.6477647068       -0.9090549428
 C       -13.2537104287       -9.1285226088       -2.4045892543
 C       -12.7488569759      -10.3414014762       -3.2926567692
 C       -13.7506377104      -10.6760999841       -4.3840869257
 O       -14.8801189765      -11.1050401603       -4.0551853167
 C       -13.4501614350      -10.6624488408       -5.8986857772
 C       -12.9057184439       -9.2542097044       -6.3423263856
 O       -12.1264658399       -8.6239718237       -5.6268236731
 C       -13.4921018295       -8.5797564920       -7.6175628801
 C       -12.7712649256       -7.4653899655       -8.1226819870
 C       -13.8175157368       -6.6682832793       -8.9407202898
 O       -14.9770062690       -7.0473471878       -8.9201247632
 C       -13.3240666936       -5.7397456151       -9.9655779209
 C       -11.8515398710       -5.0637401093       -9.7060616778
 O       -10.9360433240       -5.8292127677       -9.6860015284
 C       -11.7528114573       -3.5625792657       -9.7248326339
 C       -10.3486211548       -2.9403152201      -10.2461315024
 C       -10.4822181589       -1.3971743478      -10.4066452193
 O       -11.5177475418       -0.8642772775      -10.7184628052
 C        -9.1499757255       -0.5288097500       -9.9989656546
 C        -7.9879749157       -1.0977954493      -11.0664976515
 O        -8.4131490637       -1.4690894801      -12.1419721957
 C        -6.5034516233       -0.9526202840      -10.6859872379
 C        -5.4924555774       -1.2257970941      -11.7630974858
 C        -4.5342392806       -0.0723121932      -11.8724712530
 O        -4.8697742957        1.0285222964      -11.4894345412
 C        -3.1936507901       -0.2408295082      -12.6495903262
 C        -2.0145714430       -0.9373472626      -11.6479012648
 O        -1.0183822471       -1.4205230317      -12.1809116450
 C        -2.1373177612       -0.9259892287      -10.1275531052
 C        -0.7215254329       -1.2096904398       -9.4652994555
 C        -0.3605174662       -0.0621834483       -8.6193333235
 O        -1.0866597080        0.9004485903       -8.5007341983
 C         0.8452065146       -0.3278567498       -7.6223146154
 C         2.0522979162        0.2004097902       -8.4495089646
 O         2.7288550879       -0.5282334572       -9.1837086870
 C         2.1614966804        1.7133926245       -8.6391444064
 C         3.6687202852        2.0519798149       -9.0961043629
 C         3.8865374847        3.5294906927       -9.0283741539
 O         3.0104514831        4.3191461753       -8.5749922541
 C         5.1762956160        4.2150289829       -9.7057642705
 C         4.8172175071        4.5026688666      -11.2144533805
 O         4.9858011375        3.6666165240      -12.0991516619
 C         3.9061165463        5.7125782972      -11.6902271445
 C         4.5523913874        7.0670483964      -12.0686340816
 C         5.0942883637        7.0697555870      -13.4881275809
 O         5.5542698337        5.9787969937      -13.8540428504
 C         5.3558906354        8.3933980211      -14.3196614232
 C         5.8608792141        7.8761973610      -15.7003550632
 O         5.1845925076        7.9466666608      -16.7288025636
 C         7.3186194441        7.4063402370      -15.6863566095
 C         7.7557268575        6.8992239839      -17.0674306723
 C         7.4164548713        5.4350793871      -17.3804521302
 O         6.7091031159        4.7246152973      -16.6770136591
 C         8.0341663933        4.7946808645      -18.7231750284
 C         9.5281626335        4.3607992208      -18.2276607415
 O         9.8152644303        4.4212408831      -17.0373329828
 C        10.4525442105        3.7378431809      -19.2456167298
 C        11.2443690456        2.6003067936      -18.6788200968
 C        10.4296086641        1.3830257103      -18.3679547090
 O         9.3028755426        1.1713530960      -18.7857588407
 C        11.0529177809        0.4249077173      -17.4508759886
 C        10.2273230468        0.4981886204      -16.0400814827
 O        10.7146458001        1.1291151181      -15.1482288977
 C         8.7346445569        0.1321225990      -16.0392920185
 C         8.1866817513        0.1340052513      -14.5249840995
 C         6.7483237136        0.6417158153      -14.5283882635
 O         6.5369003654        1.8119449753      -14.4805156619
 C         5.3990553138       -0.3475170586      -14.7196200475
 C         4.4708487839        0.2770348481      -15.7252073377
 O         4.4558867108        1.5075124604      -15.7775323860
 C         3.7350240847       -0.5015689171      -16.7878993502
 C         5.6586292254       -1.8094557138      -14.9469508500
 C         4.5690349708       -0.2229249828      -13.2217998079
 C        10.7808952773       -0.9572341137      -18.0552710846
 C        12.6218228260        0.6797365280      -17.3221651970
 C         7.1149480805        3.5454606416      -19.1591450081
 C         8.0691514693        5.9042864273      -19.8430611724
 C         4.0600731406        9.2645083262      -14.4031261843
 C         6.4234414003        9.2495974358      -13.5636850763
 C         5.4562636382        5.6719331593       -9.0096691606
 C         6.4720658093        3.4009705243       -9.5543420070
 C         0.7866789569        0.3483434125       -6.2467440424
 C         1.0655515184       -1.8410122669       -7.3157863871
 C        -3.3839390567       -1.1185453985      -13.9257104074
 C        -2.6215443549        1.1619716946      -13.0499762742
 C        -9.6000090673        0.8941836129      -10.4750558272
 C        -8.7951857369       -0.4176883920       -8.4788090282
 C       -13.2659255577       -6.5090096668      -11.2870624948
 C       -14.3274910436       -4.5863233036       -9.9752408032
 C       -12.3393101953      -11.6932829226       -6.1313291419
 C       -14.7148545843      -11.2317741110       -6.6714187893
 C       -13.4075878195       -7.2402921738       -0.1287431844
 C       -13.3023635329       -9.1829328722        1.5405457454
 C       -20.2748775491       -8.7630776142       -0.1346064270
 C       -19.9571901046      -10.6065001457       -1.7899424754
 H       -17.8981245438       -6.6715324428       -2.5064150857
 H       -19.4027492350       -6.6701198534       -1.5344432075
 H       -19.4840017261       -7.1809807100       -3.2279767026
 H       -18.0446238346      -10.2309775449        2.0523402579
 H       -18.0634925109       -8.5623541235        1.3489694303
 H       -15.8481910143      -10.6137082577        1.1891585944
 H       -15.9043927604       -9.2389231108        2.4301982031
 H       -12.4405192113       -8.4091558712       -2.1301250386
 H       -13.9885602899       -8.5286389569       -2.9228342616
 H       -12.5587448275      -11.2301000538       -2.6937045887
 H       -11.8166827774      -10.1373301734       -3.7396767531
 H       -14.5244015706       -8.3495584199       -7.3151741656
 H       -13.5735544905       -9.3108189742       -8.3905130074
 H       -12.0099102393       -7.8527954662       -8.7205364770
 H       -12.3965641652       -6.7534789393       -7.3424963395
 H       -11.6985832076       -3.2544999082       -8.6604320062
 H       -12.4933978167       -3.1407930956      -10.4630126245
 H       -10.1623168939       -3.3296512959      -11.2195957242
 H        -9.5517212113       -3.0726093145       -9.5735590683
 H        -6.3812701804       -1.5748712070       -9.7487141785
 H        -6.4400362653        0.0290367862      -10.3829273964
 H        -5.8851201676       -1.3593493623      -12.7600028116
 H        -4.9869628202       -2.1271952401      -11.3432539745
 H        -2.9422640459       -1.5594005431       -9.8372067072
 H        -2.2959112851        0.0980156716       -9.6600604753
 H         0.0909233893       -1.4455152369      -10.0915163137
 H        -0.8152004701       -2.0545995103       -8.6750810685
 H         1.9390469479        2.3131576711       -7.7754680656
 H         1.5454953388        2.0183440806       -9.4433486954
 H         3.7413826115        1.7303326331      -10.1609164650
 H         4.4145344191        1.4991685106       -8.5035505269
 H         3.1893781578        6.0048271080      -10.9894837953
 H         3.5254705958        5.3307797308      -12.5970763071
 H         5.3015902673        7.4101284834      -11.3498525300
 H         3.7328770871        7.8052735235      -12.0614904914
 H         7.4392199682        6.5977867425      -14.9136970774
 H         7.9594119709        8.2535434723      -15.3759700927
 H         8.9730599976        6.8234130411      -17.0606008181
 H         7.4774585820        7.5362905511      -17.8252057329
 H        11.1480251741        4.4265616444      -19.7677616197
 H         9.7979254343        3.2909776433      -20.0818634341
 H        11.9165053063        3.0078026914      -17.8719848900
 H        11.9805747596        2.2783219562      -19.4488777943
 H         8.6480607008       -0.8930601441      -16.4798705063
 H         8.3348718660        0.9162159423      -16.6510949379
 H         8.8908197981        0.7034836728      -13.8483852706
 H         8.3655097114       -0.8504556168      -14.2020249517
 H         4.4623117868       -1.2057968114      -17.1346773905
 H         3.5431771556        0.2538996779      -17.5745749816
 H         2.8812409503       -1.0413412451      -16.5751172560
 H         4.7000739679       -2.3162903508      -14.8298841538
 H         6.3040755777       -2.2614811528      -14.2018793961
 H         6.1157236527       -2.0861202313      -15.9185217969
 H         3.5969557654       -0.6663721061      -13.4126500280
 H         4.4398177908        0.7738290126      -13.0801028764
 H         5.0894778751       -0.6877548458      -12.4533386976
 H        11.3626082444       -1.1383320431      -18.9548809132
 H         9.7283511594       -0.9367470509      -18.2551620327
 H        10.9864443615       -1.7325961296      -17.2861082895
 H        13.1549108871        0.7683388318      -18.2455570741
 H        13.1221719698       -0.2166363006      -16.9389323991
 H        12.7563791546        1.4466703633      -16.5586362335
 H         6.2139381754        3.7075660216      -19.6284865214
 H         7.0086235125        2.9665458916      -18.2431276217
 H         7.6188896731        2.8759896911      -19.8339243928
 H         7.8015511475        6.9677052998      -19.4986857120
 H         7.3727172914        5.7306290926      -20.5753707205
 H         9.0488054088        6.1233943192      -20.4156801701
 H         4.3149206600       10.1780753833      -13.8039698751
 H         3.1908461362        8.8365530029      -13.9401174671
 H         3.7599727639        9.5580888968      -15.4801132979
 H         6.8894114955        9.9932996384      -14.3199365279
 H         7.2360955595        8.6056179054      -13.1206280530
 H         5.9809250939        9.8967275676      -12.7834267649
 H         5.6542947290        5.4264564594       -7.9608658942
 H         4.4960708651        6.1583789713       -8.9966582768
 H         6.3155726832        6.1872250767       -9.4577892095
 H         7.2834178264        4.0438108469       -9.4889496657
 H         6.5211341721        2.5464004288      -10.1804666718
 H         6.3950414997        2.8850732833       -8.6222769930
 H         0.7884907946        1.5182161509       -6.3868152483
 H         1.7938823539        0.1523696063       -5.8673451248
 H        -0.1710637100        0.1465967401       -5.7104181615
 H         0.3290824388       -2.4057566523       -6.6925714292
 H         1.9672032590       -1.9060755835       -6.7334146461
 H         1.1399259312       -2.4235734291       -8.2845079288
 H        -3.8041893723       -2.0745743116      -13.5961248505
 H        -2.4785657475       -1.1944648137      -14.4242558343
 H        -4.0823807482       -0.7267328776      -14.6434245157
 H        -1.8906199407        0.9773227413      -13.8406955734
 H        -2.2402909539        1.6321847143      -12.1882939532
 H        -3.3822578653        1.7446638853      -13.5524695025
 H       -10.4582611121        1.1437763609       -9.8696787226
 H       -10.0231536000        0.7805144702      -11.4443763105
 H        -8.8160162867        1.5967978879      -10.5559189793
 H        -9.7383453784        0.0120403992       -8.0715339845
 H        -7.9254055443        0.2259951976       -8.5087473607
 H        -8.5345197724       -1.3745658029       -8.0654543505
 H       -13.2605896536       -5.8501926011      -12.1384478259
 H       -14.2617135534       -6.9365020446      -11.3140013365
 H       -12.5196200837       -7.2393438441      -11.4798048790
 H       -15.2844920462       -5.0382653546       -9.8878398358
 H       -14.1490350028       -3.9289750938      -10.7882367269
 H       -14.0404295540       -4.0125537047       -9.0672389454
 H       -11.4003968168      -11.2977457494       -5.9836642687
 H       -12.4692432092      -11.9509331094       -7.1729928686
 H       -12.6179856972      -12.6180089370       -5.5518866989
 H       -15.6482347375      -10.6616599204       -6.3963007607
 H       -14.7821234553      -12.3202042890       -6.3774710777
 H       -14.5583795121      -11.1130795571       -7.7417270696
 H       -13.9304620447       -6.7257306194       -0.9699416732
 H       -12.3736016878       -7.4074404734       -0.3642576643
 H       -13.4363702948       -6.5762946617        0.7162015166
 H       -13.4145090335      -10.2652472903        1.5126600394
 H       -13.7733834453       -8.6074602077        2.3387049726
 H       -12.1403245339       -9.0170575817        1.3789012028
 H       -19.8458909768       -8.1599526706        0.7606122248
 H       -20.8125554186       -9.4960593756        0.5011058609
 H       -20.9718333922       -8.2502079802       -0.6791342732
 H       -20.1443522310      -11.3865726261       -1.0759380309
 H       -19.4636208625      -10.9588915506       -2.6855977956
 H       -20.9229801021      -10.2526292510       -2.1012451339
 Na      -16.3691913547      -11.2277943064       -2.3362930976
 Na        5.3087457561        3.6973466323      -15.0414977095
