232

 C        12.6631658981       -6.0077315026      -10.1059064999
 C        12.5692099951       -6.5738446697       -8.6938034563
 O        11.5197768815       -7.0785013445       -8.3575909070
 C        13.8236206445       -6.4672148663       -7.6597029895
 C        13.4168462781       -5.6258160343       -6.4361905831
 O        12.2388182680       -5.3163270711       -6.2536589584
 C        14.5813311239       -5.2969077505       -5.5367018819
 C        14.4339758553       -5.6834962761       -3.9353927845
 C        14.3233028789       -7.2244745039       -3.7096496519
 O        15.0130443455       -8.0308960861       -4.3573528811
 C        13.4048728431       -7.7981782082       -2.5557656545
 C        12.2833437717       -8.4309980930       -3.3953340395
 O        11.6297684365       -7.6531804321       -4.0758817894
 C        12.1882769841       -9.9416036942       -3.5087235883
 C        10.8056006493      -10.4398223155       -4.2521118807
 C        10.7633730049      -10.2635129950       -5.7735541353
 O        11.3508288100       -9.3654581308       -6.2826622786
 C         9.5720358716      -10.9510090676       -6.4979458283
 C         8.2780680691      -10.0167801946       -6.3637308316
 O         7.4705473791      -10.1465196130       -5.4829594314
 C         8.3187237990       -8.7237369942       -7.1590407579
 C         7.2650091580       -7.6590819628       -6.7217694857
 C         7.5093083023       -7.0394509629       -5.3848254491
 O         8.6159856794       -6.6916120362       -5.1654408448
 C         6.4344092647       -6.5831522755       -4.4778451382
 C         5.6389380563       -5.4410794445       -5.1408920567
 O         5.6171939961       -5.2890009667       -6.3577477652
 C         5.1382853228       -4.2427156891       -4.2663589864
 C         4.3408712089       -3.3028874684       -5.1946083326
 C         3.0623979559       -3.9139640301       -5.8874712861
 O         2.5543050847       -4.9197123468       -5.4524951815
 C         2.5349686922       -3.2591711250       -7.2980362999
 C         1.5784361391       -2.0956691669       -6.9197356847
 O         1.8670905277       -0.9446302819       -7.1345617871
 C         0.2584479101       -2.4590467678       -6.2609124071
 C        -0.9430904596       -1.8009331849       -7.0019709138
 C        -2.1870210434       -2.0466227509       -6.1460331072
 O        -2.0978982158       -2.6871346669       -5.1026600903
 C        -3.6382972460       -1.7698307382       -6.7463240702
 C        -3.7952191065       -2.0622752888       -8.2149526508
 O        -2.9236120066       -1.9648694479       -9.0760670864
 C        -5.2478247850       -2.5077597789       -8.6411499006
 C        -5.4209151565       -2.2869311640      -10.0915560625
 C        -6.3097915195       -1.0201612470      -10.3715392356
 O        -6.8081295986       -0.3876760078       -9.4415215945
 C        -6.6052493220       -0.5839076095      -11.8484284598
 C        -8.0249195802       -1.1941235761      -12.0236884588
 O        -8.1380073306       -2.3663860795      -12.2098883648
 C        -9.3483727096       -0.3108189096      -11.8486197230
 C       -10.4689081658       -0.9716210415      -12.6371305765
 C       -11.7626084265       -0.1619919069      -13.1066255439
 O       -11.8141385300        1.0422507639      -13.1770528987
 C       -13.0384776681       -1.0248255069      -13.7675354954
 C       -14.2099129772       -0.6436373135      -12.9340459784
 O       -14.9421716877        0.3258655232      -13.1900588585
 C       -14.6305194988       -1.5497657346      -11.8079381880
 C       -15.7943246551       -0.9981138117      -10.9747690118
 C       -15.2520585196        0.0660275370       -9.9950205093
 O       -14.1837471621       -0.0927744363       -9.4376598398
 C       -16.0689702756        1.5071522970       -9.7320582200
 C       -15.0325580034        2.5226782803      -10.3018483309
 O       -15.0815236111        2.8367124409      -11.4729591298
 C       -13.8706277885        3.0031467099       -9.5168829930
 C       -12.8617832585        3.9974057262      -10.0667346490
 C       -13.3091481644        5.4132637884      -10.1911258909
 O       -14.0219617181        5.9501019309       -9.3732780486
 C       -12.7011367633        6.2505961529      -11.4690682295
 C       -13.3727932683        5.4298138775      -12.7396920778
 O       -12.9023152542        4.2507055984      -12.8776527544
 C       -14.5763386641        5.9516717479      -13.5628939846
 C       -15.2648762094        4.8852156674      -14.5263015053
 C       -14.3709744299        4.4884521123      -15.7044441998
 O       -13.9042148589        3.3788266663      -15.7484759710
 C       -14.1234827071        5.3271957776      -16.9906175721
 C       -15.4506648411        5.6666323111      -17.6477403277
 O       -16.3900594565        6.0029490152      -16.9181842209
 C       -15.5993567580        5.8876424710      -19.2492003085
 C       -16.8436933273        6.7357323828      -19.6671093338
 C       -16.5136488105        8.1266319149      -20.3430739005
 O       -15.4406947558        8.7436308575      -20.0260375067
 C       -17.3985366066        8.5706234420      -21.5942358499
 C       -18.9317453418        8.9371867965      -21.1097422696
 O       -19.3105446561        9.0160503673      -19.9885186418
 C       -19.8260893611        9.2343755706      -22.3273877567
 C       -16.7129984353        9.7747295358      -22.3207970539
 C       -17.5555245872        7.2911374784      -22.5770576199
 C       -13.6757324838        6.8594562626      -16.8136298785
 C       -13.1134372185        4.7436486393      -17.9321106744
 C       -13.1422851978        7.7487309537      -11.3018188500
 C       -11.1844327210        6.1617404280      -11.5653780409
 C       -17.2907494157        1.6263964844      -10.6231757310
 C       -16.3723800350        1.6205221652       -8.2611878021
 C       -13.0735569703       -0.7295941759      -15.3552872418
 C       -12.7741978362       -2.5169289360      -13.6651387435
 C        -6.6600353425        0.9730632541      -11.8185407085
 C        -5.5800488172       -1.1175752122      -12.8616253997
 C        -4.5292875467       -2.7511368425       -5.8910375137
 C        -4.1018799476       -0.3298212917       -6.4886173585
 C         3.6670277929       -2.9500527761       -8.1922894610
 C         1.6634293057       -4.4142635277       -7.8907101001
 C         5.3961389547       -7.7235509833       -4.1820459770
 C         6.9717380151       -6.0734384150       -3.1897565874
 C         9.9568040099      -11.0777473524       -8.0623932009
 C         9.0991025209      -12.3804499606       -6.0130554746
 C        14.2737432200       -8.8947392954       -1.7412266091
 C        13.0193549138       -6.6414977417       -1.6361037427
 C        14.1012657210       -7.9863189045       -7.3413518012
 C        15.1136108944       -5.9192718910       -8.4048790811
 H        12.4984854544       -4.9056187845      -10.0968747996
 H        11.9705573355       -6.3953973593      -10.9079689063
 H        13.7555357115       -6.1058303021      -10.4195783828
 H        14.8787837011       -4.2232544522       -5.4340141060
 H        15.5941345918       -5.6403390704       -5.9153544760
 H        13.5788366283       -5.1566323400       -3.5373639095
 H        15.3380550386       -5.3816686228       -3.3943221175
 H        12.3084417987      -10.4680858620       -2.5502348477
 H        13.0260316425      -10.3416384155       -4.1371467965
 H         9.9912734293       -9.8726367425       -3.8281018805
 H        10.7121035209      -11.4645840890       -3.8881701197
 H         8.0152548545       -8.9668764985       -8.2041940978
 H         9.3920869895       -8.3835990005       -7.1259059341
 H         6.3445640167       -7.9899266595       -7.0786677243
 H         7.5748465411       -6.7935877378       -7.3430336489
 H         6.0242419434       -3.7374608022       -3.8123142029
 H         4.5158544822       -4.4777526509       -3.4039037669
 H         4.9743985898       -2.9492481868       -6.0308917279
 H         3.9485634098       -2.4390924097       -4.6339862566
 H         0.3812886523       -2.0431198099       -5.2801548408
 H         0.1217169736       -3.5456451117       -6.2242328873
 H        -1.1278637839       -2.0063064930       -8.0838187839
 H        -0.6602621053       -0.7345996849       -7.1191171437
 H        -5.9951194223       -1.9717320987       -8.1155056875
 H        -5.2627350258       -3.5851366168       -8.4362195830
 H        -6.1998287742       -2.9895365215      -10.5448833028
 H        -4.5021181108       -2.2379437234      -10.6255551911
 H        -9.0769285203        0.6123885560      -12.4275337273
 H        -9.8052950670       -0.0462203093      -10.9091514659
 H       -10.8141427933       -1.9064497213      -12.3022877509
 H       -10.0837286400       -1.2703210599      -13.5814702379
 H       -13.6957069612       -1.6890768727      -11.1562298037
 H       -14.8171407685       -2.6002301708      -12.1208929763
 H       -16.1719200944       -1.7299181860      -10.3333788960
 H       -16.6201297299       -0.6409722613      -11.6191400915
 H       -13.3359012573        2.1722763830       -9.1140992820
 H       -14.2178505017        3.6010331955       -8.5519139756
 H       -12.3600397829        3.6666248501      -11.0262108686
 H       -11.8545113849        4.0071381614       -9.5080039526
 H       -14.3240930384        6.8050960470      -14.2196829442
 H       -15.3543600242        6.3516846497      -12.8700916660
 H       -16.0490239549        5.5486813166      -14.9583728479
 H       -15.6377942891        3.9612149371      -14.0324086398
 H       -15.6789179555        4.8886874268      -19.6503842367
 H       -14.6731828465        6.3396770841      -19.5191458042
 H       -17.5223701747        6.9744471833      -18.8320062027
 H       -17.5027812194        6.1264195121      -20.2981634334
 H       -19.2318617467        9.9620960648      -23.0013670887
 H       -20.8237758636        9.5709594550      -21.9732618126
 H       -19.8932041454        8.2614554760      -22.8706471811
 H       -15.6918444845        9.4586617823      -22.2835113309
 H       -16.9430017811       10.7148551454      -21.7604815464
 H       -16.9699238666        9.8153510808      -23.3519336025
 H       -18.3704258864        6.5718681065      -22.1919583210
 H       -16.7122522518        6.7061644688      -22.9419700130
 H       -17.8827450935        7.6856865563      -23.5225548670
 H       -13.6816985974        7.3070911181      -17.7857960346
 H       -12.6881151417        6.9355831635      -16.4169211080
 H       -14.3106296611        7.3245996983      -16.0816086811
 H       -13.4651544047        3.7440140990      -18.1742588723
 H       -12.2081254107        4.5153959998      -17.3936388940
 H       -13.0348959367        5.2574302916      -18.9125086991
 H       -12.7138465900        8.1815398227      -10.4392515571
 H       -14.2719231050        7.7902101333      -11.2322408071
 H       -12.8016165553        8.3952645138      -12.1606312095
 H       -10.9513970025        5.1034596308      -11.5125034526
 H       -10.8051944642        6.6413127193      -10.6523335914
 H       -10.8548273583        6.6913322953      -12.4420987392
 H       -17.7941911149        2.6698243505      -10.5179500533
 H       -18.0671896953        0.9442550523      -10.3461645910
 H       -16.9385246452        1.5007643732      -11.6380984656
 H       -17.2781676282        1.1543256346       -7.9437787744
 H       -16.4109624432        2.6295632997       -7.9678283001
 H       -15.5478337693        1.2922993994       -7.6039464333
 H       -13.1129523881        0.3743406683      -15.5093978798
 H       -13.8300403847       -1.2818706493      -15.8635552116
 H       -12.1052347308       -1.0018872070      -15.8572106829
 H       -11.9462509508       -2.8481088594      -14.2704417279
 H       -13.7326366138       -3.0256799296      -13.9283678936
 H       -12.5247786533       -2.7994663075      -12.6641689524
 H        -6.8554822242        1.3366762121      -12.8307406644
 H        -5.7121840295        1.4216101194      -11.5329661492
 H        -7.2896097204        1.2249537130      -11.0623436139
 H        -5.8825532225       -0.8248749185      -13.8640314744
 H        -5.4851478934       -2.2663302719      -12.7366564113
 H        -4.5907836480       -0.5699561011      -12.5538872438
 H        -4.1798075912       -3.8029873831       -5.9827430659
 H        -5.6184332847       -2.7644262085       -6.0802230153
 H        -4.3641056228       -2.3963837622       -4.8765138297
 H        -4.9598468323       -0.1151939876       -7.0137283098
 H        -3.3288925542        0.4071190340       -6.8381443777
 H        -4.2702210374       -0.0611351050       -5.4408755582
 H         3.4021712505       -2.5832980240       -9.1450428638
 H         4.2684547087       -3.8400939182       -8.3678456782
 H         4.3119353604       -2.1527426265       -7.7065074875
 H         2.3531233256       -5.2149817840       -8.0187608582
 H         1.0461678266       -4.0270349094       -8.7174591366
 H         0.8625134476       -4.8602648652       -7.1579541509
 H         5.8631987187       -8.6585080123       -4.1519844466
 H         4.6927781756       -7.7385253486       -5.0423029898
 H         4.7033471326       -7.3848407492       -3.4002775785
 H         7.6985354328       -5.2283283533       -3.4525670040
 H         7.5502264863       -6.8103989548       -2.7340753206
 H         6.1217578296       -5.6685936517       -2.5817291867
 H        11.0206135014      -11.4616060553       -8.1221359991
 H        10.0151094129      -10.1076782888       -8.5225667556
 H         9.2744637213      -11.7587900895       -8.5899958182
 H         8.3559976236      -12.4311952831       -5.2372415653
 H        10.0289726315      -12.9160572244       -5.7295859364
 H         8.6866663867      -12.8938547872       -6.8795302988
 H        14.9160064820       -8.4737041854       -0.8992600804
 H        14.9980588023       -9.3506744812       -2.4650389185
 H        13.8141062979       -9.7872849667       -1.3863712442
 H        12.9714466796       -7.0016428005       -0.5988512696
 H        12.0172609700       -6.3408597133       -1.8729424097
 H        13.7586633200       -5.8594045957       -1.6618870193
 H        13.2280186314       -8.5930586525       -7.1642392378
 H        14.6122853094       -8.0036066015       -6.4140818388
 H        14.7021793802       -8.2977500409       -8.1315653050
 H        15.9839903181       -6.2504998450       -7.8435928621
 H        14.9881672740       -4.8242397523       -8.5008749249
 H        15.2689862332       -6.4187148867       -9.3844886458
 Na       10.6642151412       -6.9024184546       -6.1016458653
 Na      -13.8109608892        2.3534352364      -13.6290887167
