232

 C        12.7427463553       -5.6337538404      -10.1138077747
 C        12.6160491428       -6.3816772137       -8.7951314584
 O        11.5455785829       -6.8423184500       -8.4026271581
 C        13.8447808052       -6.5050739232       -7.7670698222
 C        13.4654692663       -5.6826169185       -6.3987196405
 O        12.3202712804       -5.2999318717       -6.1875131586
 C        14.5343771880       -5.3189531812       -5.3804051779
 C        14.1340840702       -5.8187675170       -4.0264948245
 C        14.3492049341       -7.3162355074       -3.7264649773
 O        15.1741071747       -7.9804159921       -4.2471637897
 C        13.3843384994       -7.9417562123       -2.6042974449
 C        12.0956826652       -8.3954210514       -3.3489797814
 O        11.3544153929       -7.5661848213       -3.8509991257
 C        11.9984213659       -9.9261484038       -3.5142559221
 C        10.9733078147      -10.7655472787       -4.2701962888
 C        10.6198855058      -10.2311536742       -5.6446686390
 O        11.2177939080       -9.2196953460       -6.1099127850
 C         9.5764104536      -10.8636080049       -6.6246055937
 C         8.3711380006       -9.8135028746       -6.3686907951
 O         7.6474924247       -9.9858676797       -5.4385979664
 C         8.1562067738       -8.6785032775       -7.3394244690
 C         7.3194287923       -7.5521889059       -6.7742237009
 C         7.5970214708       -6.9053940211       -5.5156075112
 O         8.7750766292       -6.6806390732       -5.1870123777
 C         6.5047179852       -6.4615698416       -4.5230192660
 C         5.7545548291       -5.1556327519       -5.2625940734
 O         5.8118842907       -5.1206660227       -6.4411970130
 C         4.9523151195       -4.1329348881       -4.4921226003
 C         4.1389547578       -3.0663032995       -5.3129112041
 C         2.9754372537       -3.9029927894       -5.9720888405
 O         2.3905587336       -4.6243971427       -5.1695809223
 C         2.5813785177       -3.5288485725       -7.4123907711
 C         1.6890371304       -2.2563758006       -7.0891450446
 O         2.1994869558       -1.1420641798       -7.2155491311
 C         0.2886805254       -2.4899456261       -6.4269167015
 C        -0.8408034933       -1.6609050003       -6.9921471401
 C        -2.1063312696       -2.0604346460       -6.1868197813
 O        -1.9634036970       -2.4835636774       -5.0825146885
 C        -3.6193498306       -1.9140873733       -6.7419651410
 C        -3.9102613280       -2.2167632380       -8.2727238879
 O        -2.9722467713       -2.1678135668       -8.9922484581
 C        -5.3440453194       -2.5577269260       -8.6947278024
 C        -5.6700557761       -2.3576738241      -10.1843438874
 C        -6.4029904763       -0.9708597595      -10.3732694124
 O        -6.9044284590       -0.4114617137       -9.4211536348
 C        -6.7736541724       -0.4860604792      -11.8901109302
 C        -8.2359607009       -0.9981541570      -12.0370139136
 O        -8.3200279700       -2.2208527012      -12.1779314939
 C        -9.4064350287       -0.1010638345      -12.1888155971
 C       -10.6501599037       -1.0966930778      -12.3664727509
 C       -11.8123754657       -0.2501555763      -12.8949072262
 O       -11.8021847274        0.9678046705      -12.8197903747
 C       -13.0040759982       -1.0358955460      -13.5637828078
 C       -14.1853465990       -0.6967617698      -12.7590039147
 O       -14.7670902888        0.3306674843      -13.1210915889
 C       -14.7268414833       -1.5786235040      -11.6237588554
 C       -15.8796449750       -0.9913443752      -10.8312588755
 C       -15.2483163664        0.1277373708       -9.9511310911
 O       -14.1348321625        0.0547902267       -9.4866105169
 C       -16.0517765251        1.4991496133       -9.8450176449
 C       -14.9448084682        2.5115025993      -10.3922438638
 O       -14.8414769039        2.9198453334      -11.5375038966
 C       -13.9257580151        2.9730960012       -9.4111355952
 C       -12.7354612489        3.8536716294       -9.9992550170
 C       -13.1903230214        5.3979140539      -10.2309368972
 O       -14.0610492259        5.9110727718       -9.6001689662
 C       -12.6450498461        6.1554798986      -11.5906121508
 C       -13.1300296558        5.3184463240      -12.7747206759
 O       -12.6414088264        4.3070905868      -13.1355073310
 C       -14.3270849565        5.8906446716      -13.5077611546
 C       -15.0238721807        5.0118743765      -14.5804223435
 C       -14.1745216810        4.4613782189      -15.7712124626
 O       -14.0574733716        3.2230807771      -15.9319404027
 C       -14.1525813951        5.3259824338      -17.0348807416
 C       -15.7546725296        5.6201790528      -17.6429531039
 O       -16.6003530110        5.7581718367      -16.8540915849
 C       -15.9386996210        5.9642145396      -19.1035447998
 C       -17.1241117336        6.9600275090      -19.2364110492
 C       -16.6173468168        8.1421941341      -20.1295738253
 O       -15.6907932254        8.7908446959      -19.8035062197
 C       -17.3739471544        8.3871917771      -21.5672787318
 C       -18.7715664668        8.8478423409      -21.0590356356
 O       -19.0676882835        8.6522021895      -19.8822794514
 C       -19.6791287670        9.7159224498      -21.9488395431
 C       -16.6378451413        9.7258389793      -22.1752183445
 C       -17.2030521322        7.1520764007      -22.5267794907
 C       -13.4581693444        6.6685665297      -16.6600166780
 C       -13.3789108899        4.5969391913      -18.1367514322
 C       -13.2269423178        7.6285060497      -11.6155599273
 C       -11.0617554560        6.0932641911      -11.5305874459
 C       -17.4114594691        1.4291791057      -10.6045550453
 C       -16.3965003170        1.8308468416       -8.3680547101
 C       -13.0666789205       -0.4626275773      -15.0680879194
 C       -12.6985788894       -2.5588669228      -13.6413260291
 C        -6.5633163248        0.9782431565      -11.9381146503
 C        -5.8930822255       -1.2023229503      -13.0912635357
 C        -4.5443794194       -2.7646990863       -5.8555370371
 C        -4.0303094219       -0.4317474667       -6.5637252486
 C         3.7706705033       -3.0450026671       -8.3082494437
 C         1.8895324088       -4.6439674200       -8.1843776297
 C         5.4564875437       -7.5645312616       -4.4787700968
 C         7.0066535461       -6.2233765169       -3.0996500967
 C        10.0186255522      -10.9504406171       -8.0447063139
 C         9.2649766692      -12.1959014055       -6.0286851412
 C        14.0668747370       -9.0056264210       -1.8389747114
 C        12.7787358467       -6.9391078500       -1.5742146980
 C        14.0667868992       -8.0012506568       -7.2161127889
 C        15.0767537352       -5.8807324877       -8.4171218304
 H        12.4123615542       -4.6025984281       -9.9451040090
 H        11.8806550283       -6.0706596660      -10.6233610771
 H        13.5770797701       -5.5753006349      -10.7176372401
 H        14.6999915497       -4.2638231339       -5.2661851607
 H        15.5215366576       -5.5566139530       -5.6002899867
 H        13.0679583308       -5.5460158259       -3.8867107839
 H        14.6399537962       -5.3313051392       -3.1612759200
 H        11.9864084501      -10.3613469963       -2.5030776014
 H        12.9480016801      -10.2638956900       -3.8994914286
 H        10.0879932183      -10.7547910807       -3.6040246507
 H        11.3546670858      -11.7969922859       -4.2329883107
 H         7.6386275811       -9.1318857087       -8.2468247750
 H         9.1187885002       -8.2930475533       -7.6795160382
 H         6.2681418941       -8.0197478582       -6.6907796354
 H         7.2308825556       -6.7693950964       -7.5634270976
 H         5.7063936061       -3.6077249023       -3.9538199641
 H         4.3621720534       -4.5708410551       -3.6880986056
 H         4.8019094166       -2.5665266340       -6.0137244429
 H         3.7529820980       -2.3153993514       -4.6180597596
 H         0.5183498619       -2.2391322643       -5.3628545726
 H        -0.0006861542       -3.5362114189       -6.5308925796
 H        -1.0161114901       -1.7531456890       -8.0606623867
 H        -0.5942034910       -0.6377538208       -6.9751339623
 H        -6.0203222072       -1.8925395486       -8.0724700874
 H        -5.4701791599       -3.5705000701       -8.4202989145
 H        -6.2543662105       -3.1018774080      -10.6502272387
 H        -4.7593830561       -2.1112274506      -10.7749876072
 H        -9.2724851592        0.6254354112      -12.9786474137
 H        -9.6307122904        0.5098757193      -11.2891203886
 H       -10.9141559956       -1.7452267406      -11.4982049949
 H       -10.4252432854       -1.7703069786      -13.2304624201
 H       -13.9137825549       -1.9029052933      -10.9878864091
 H       -15.0523328504       -2.5218651460      -12.1091694728
 H       -16.4330841541       -1.7419516590      -10.1930525195
 H       -16.5975435454       -0.5380991907      -11.5210430528
 H       -13.4928840348        2.0391951081       -8.8609824233
 H       -14.2435151036        3.5402019193       -8.6271631413
 H       -12.1830960435        3.4486841503      -10.8253280790
 H       -11.9176427865        3.8769403729       -9.3279072310
 H       -14.0476955334        6.9064000910      -13.8435122142
 H       -15.1044353436        6.1807995694      -12.8102931926
 H       -15.8896700733        5.5050897809      -14.9940657631
 H       -15.2420781393        4.1324190366      -13.9954294491
 H       -16.0867452152        5.0858899781      -19.7596654955
 H       -14.9761207994        6.4826230747      -19.3376653040
 H       -17.5517164913        7.5117820013      -18.3927004083
 H       -17.9696049579        6.3900631045      -19.6531213160
 H       -19.2995483949       10.6853595959      -21.7203973612
 H       -20.7091853608        9.5049528136      -21.6649948996
 H       -19.4504436747        9.5684004097      -23.0196360564
 H       -15.6841076700        9.4590384006      -22.5998031874
 H       -16.6194440252       10.4378227406      -21.3850366668
 H       -17.3281734504       10.1475166413      -22.9305086079
 H       -17.3462188750        6.2717208415      -22.0015000011
 H       -16.1702825537        7.1939390363      -22.8146233009
 H       -17.7468469949        7.0616288851      -23.4392924234
 H       -13.3653528836        7.3303223672      -17.5364183206
 H       -12.4295846618        6.3659191150      -16.3755847560
 H       -13.8780918154        7.1051768630      -15.7539895532
 H       -13.3826766330        3.4894606660      -18.0348760181
 H       -12.3114417883        4.9043495387      -18.1744540079
 H       -13.8966889189        4.7302250921      -19.0427222300
 H       -12.5404786191        8.3057421412      -11.0332665767
 H       -14.2114398339        7.7789741645      -11.2336284770
 H       -13.2391373639        7.9553772132      -12.6378768960
 H       -10.7855548658        5.0486854062      -11.5025484014
 H       -10.6489948051        6.5094169476      -10.6268810470
 H       -10.8015359532        6.6688707335      -12.4237223104
 H       -17.9850782359        2.2571823500      -10.2011521399
 H       -17.9790596234        0.4849454534      -10.3005472785
 H       -17.3161524322        1.4527869231      -11.6527551041
 H       -16.8245136557        0.9213297642       -7.8935082321
 H       -17.1625064842        2.6168899228       -8.1597763300
 H       -15.5533731336        2.0640500122       -7.7288538643
 H       -12.9493957857        0.6140869577      -15.0632952817
 H       -14.0522517673       -0.7399568192      -15.4737702021
 H       -12.4232985154       -0.9784561667      -15.7971416217
 H       -11.7724739644       -2.7709996551      -14.2313505382
 H       -13.5748699254       -3.0240665072      -14.0269540077
 H       -12.5168732815       -2.9517541377      -12.6223266336
 H        -6.6133239675        1.3867669139      -12.9691775541
 H        -5.5260542593        1.0862288365      -11.6861223568
 H        -7.1729390423        1.5030071382      -11.1425955295
 H        -5.9736743744       -0.5187747869      -13.9636953179
 H        -6.2801703626       -2.1823288502      -13.2625298585
 H        -4.9081960948       -1.3006113578      -12.7769188866
 H        -4.3813171385       -3.8044594074       -6.0568491362
 H        -5.5546459374       -2.4870043072       -6.0095286440
 H        -4.2752077365       -2.6304569776       -4.8544821382
 H        -4.6552740973        0.0329092558       -7.4119781488
 H        -3.1970042672        0.2250431398       -6.2812206059
 H        -4.5605862141       -0.2663070329       -5.6480622278
 H         3.8053894090       -3.5197794227       -9.3482638661
 H         4.7301632902       -3.4330997416       -7.8895717307
 H         3.8562596475       -1.9806672604       -8.3798572614
 H         2.6962443477       -5.3908397070       -8.1532521988
 H         1.4451716296       -4.2761156850       -9.0960873015
 H         1.0568984204       -5.0551667688       -7.6979709064
 H         6.0003530724       -8.3660349047       -3.8900632748
 H         4.9271172707       -7.9086680323       -5.3189488362
 H         4.6313719596       -7.1825437231       -3.8956535128
 H         7.9561455335       -5.7959148923       -3.0611549111
 H         7.1677495181       -7.2377780063       -2.6521017948
 H         6.2294013079       -5.6649447738       -2.6273228982
 H        10.3838285366      -11.9055256958       -8.2132994411
 H        10.8931284559      -10.2840508246       -8.1638815853
 H         9.2409389899      -10.7255159545       -8.7366746233
 H         9.0703347047      -11.9669072687       -4.9681878689
 H        10.1318708504      -12.8313777943       -6.0652980982
 H         8.4398397148      -12.7514670914       -6.4506149698
 H        15.0768064732       -8.7376219250       -1.7273930766
 H        14.0283002582      -10.0249489169       -2.2031152035
 H        13.6326910449       -9.1754334189       -0.8157471323
 H        11.9496263619       -7.3513367216       -1.0075096146
 H        12.3596307234       -6.0695182974       -2.1004373307
 H        13.6132490513       -6.6717542276       -0.8921652511
 H        13.3561506155       -8.1047886899       -6.3769248956
 H        15.0283561148       -8.2405985534       -6.7354872253
 H        13.9088677308       -8.6350327896       -8.1053579430
 H        15.9383026015       -5.9574402305       -7.7345457109
 H        14.9208474856       -4.8792574066       -8.7779128810
 H        15.3955052089       -6.6273393058       -9.1109766845
 Na       10.7427139131       -7.0797234778       -6.3332309279
 Na      -13.8065281569        2.2893613739      -13.6576130513
