232

 C        12.9277692561       -5.2278279770      -10.1536169579
 C        12.7253129177       -6.0573096505       -8.8087880456
 O        11.6019101941       -6.4102635802       -8.5317876845
 C        13.8840711560       -6.3063429169       -7.9065240296
 C        13.4244315941       -5.7694887616       -6.3912896176
 O        12.2893817331       -5.3467512413       -6.2682107766
 C        14.4851842722       -5.3785140711       -5.3024717630
 C        13.9848859728       -5.7444001983       -3.8001075995
 C        14.0990218119       -7.2599437405       -3.3950627975
 O        14.9907220080       -7.8702233948       -3.9486949347
 C        13.2432568086       -8.0833621026       -2.3680197542
 C        12.1221271101       -8.6767691338       -3.1693646730
 O        11.3098950499       -7.9275571616       -3.6908361915
 C        11.9409601847      -10.1968014432       -3.4946952688
 C        10.7077838381      -10.6565613647       -4.2504410193
 C        10.7097129888      -10.3369110651       -5.7116367234
 O        11.6758555145       -9.6276151176       -6.1015377503
 C         9.4681703540      -10.7428012093       -6.6561131665
 C         8.4717692800       -9.4802956735       -6.4617040674
 O         7.8498442079       -9.4600351408       -5.4575777187
 C         8.1200560424       -8.5078896489       -7.5792092885
 C         7.0860204198       -7.4961722394       -7.1096654545
 C         7.5044328704       -6.8433360073       -5.8152712242
 O         8.6607534522       -6.7809392578       -5.4467881070
 C         6.3894742952       -6.2886488326       -4.7848583807
 C         5.9685702857       -4.8891912095       -5.4722339148
 O         6.2573458987       -4.5806945724       -6.5934013723
 C         5.0279112970       -3.9968625762       -4.6521765771
 C         4.1114079620       -2.9203829097       -5.3318706345
 C         2.9422566461       -3.7916557708       -5.9663149551
 O         2.4544934174       -4.6171213280       -5.2247846415
 C         2.6415293527       -3.6015000101       -7.4928148927
 C         1.5847043138       -2.4807212935       -7.4801842165
 O         1.8455629639       -1.3057146785       -7.7704061112
 C         0.2509281193       -2.8794694224       -6.8365201427
 C        -0.8356481360       -1.9176437848       -7.2164817346
 C        -2.0521552463       -2.1375263701       -6.3860527694
 O        -1.8677107210       -2.3956865359       -5.2322102624
 C        -3.5995801262       -1.8876367024       -6.8112704941
 C        -3.8415298003       -2.3437118843       -8.2724607347
 O        -2.9708927268       -2.5283756513       -9.0586490363
 C        -5.3723889146       -2.4539478446       -8.6629635204
 C        -5.5537447633       -2.3106731405      -10.1134312330
 C        -6.3287840320       -0.9334114423      -10.3933351236
 O        -6.7124425591       -0.2372156259       -9.4630640510
 C        -6.8324683519       -0.5687791620      -11.9063660529
 C        -8.2480872149       -1.2392163925      -12.0632348319
 O        -8.3498479463       -2.4345261231      -12.1410517468
 C        -9.4036124838       -0.3020427080      -12.4032690643
 C       -10.8742537800       -0.8220543445      -11.8107150484
 C       -12.0052815315       -0.1295891002      -12.5664103468
 O       -12.0556900763        1.1068665057      -12.4608789472
 C       -13.0126552123       -1.0306438451      -13.3814593891
 C       -14.4470822243       -0.6654396157      -12.5962693522
 O       -15.0253680801        0.4048174366      -12.8760147228
 C       -14.8596175121       -1.6981826725      -11.5675927013
 C       -15.9251108266       -1.0965240179      -10.5993392309
 C       -15.2675555600        0.1310804976      -10.0192074192
 O       -14.1811303004       -0.0451168183       -9.5091094359
 C       -15.9444461215        1.6291775772       -9.9511043934
 C       -14.8406127640        2.6124450876      -10.3850981905
 O       -14.7917316663        3.0283676559      -11.5436654090
 C       -13.7389036336        3.0231586479       -9.4043245276
 C       -12.6440291672        3.9281291865      -10.1228356830
 C       -13.2017670413        5.2770708292      -10.5150846890
 O       -14.2260926935        5.8242088275      -10.1555341392
 C       -12.2840127975        6.0567659229      -11.6646975980
 C       -12.7809831634        5.4064802085      -12.9594864012
 O       -12.3327621607        4.3915155017      -13.3683398808
 C       -14.1778447336        5.9228063835      -13.6040689714
 C       -14.9329167037        4.7817445419      -14.3689622038
 C       -14.2478012314        4.1921389132      -15.5824056210
 O       -13.6990644053        3.0491801974      -15.5188319182
 C       -14.4171621992        4.7948152289      -16.9425908151
 C       -15.8488039612        5.3918497782      -17.5265304048
 O       -16.8433846652        5.3767999753      -16.8810010519
 C       -15.9176244854        5.9987886535      -18.8731721174
 C       -17.0209985985        7.1196172426      -18.9081426263
 C       -16.6439999884        8.2832715305      -19.8343442655
 O       -15.5956653198        8.8643942790      -19.4949148920
 C       -17.3443108191        8.6395072619      -21.1323646305
 C       -18.8480413488        9.0845356881      -20.8385922402
 O       -19.6019807330        8.2353924077      -20.4454324736
 C       -19.3832631821       10.3348764189      -21.5304959781
 C       -16.5244161372        9.7290289954      -21.7378068894
 C       -17.4449748814        7.3324701470      -22.1002415378
 C       -13.7186145693        6.2591560153      -16.8378702090
 C       -13.7510727179        3.8546296747      -18.0817924263
 C       -12.4938274424        7.5923099833      -11.7119376418
 C       -10.7592930087        5.7543400039      -11.4885908346
 C       -17.1583735242        1.5966562079      -10.8324086441
 C       -16.4634111075        1.9661216177       -8.5511904720
 C       -13.2356421300       -0.5340796701      -14.8649306024
 C       -12.7263184762       -2.6061774907      -13.3983582695
 C        -6.6718480523        0.9769874185      -12.1551483906
 C        -5.8063250898       -1.2076970971      -12.9172363470
 C        -4.5192809295       -2.6697380778       -5.8230344656
 C        -3.8894630601       -0.3828228245       -6.8083865337
 C         3.8765973303       -3.2262532272       -8.3544535357
 C         2.0065838627       -4.8534021252       -8.1944139632
 C         5.1984227518       -7.3164763676       -4.6124634184
 C         7.1238068709       -6.0101952169       -3.4254408161
 C         9.9629525371      -10.6931390274       -8.0999165940
 C         8.8162779754      -12.1329780091       -6.2223013710
 C        14.1312023779       -9.1347066414       -1.5722327837
 C        12.5225267822       -7.2322069578       -1.3283824553
 C        14.0714650475       -7.9021082554       -7.7586077804
 C        15.1790069231       -5.6181900126       -8.2183909835
 H        13.9016651880       -4.6807781209      -10.2370963384
 H        12.0278793442       -4.5271030513      -10.3222850066
 H        12.7959036862       -5.8208052276      -11.0532064077
 H        14.6049563725       -4.2546768311       -5.2768131347
 H        15.5280185316       -5.6052657044       -5.4869147307
 H        12.9311288420       -5.5024220628       -3.7088210645
 H        14.4047368941       -5.1555063294       -2.9699820889
 H        12.1471079150      -10.8339165563       -2.6200030106
 H        12.8163508073      -10.4083472740       -4.1131278187
 H         9.8517204453      -10.1602519266       -3.7672422904
 H        10.4613304981      -11.7263342752       -4.1167826503
 H         8.0532463459       -8.9249908770       -8.6346813937
 H         9.0965264459       -7.9522727106       -7.7795225303
 H         6.1306453861       -8.0821343053       -6.9850914730
 H         6.8803981435       -6.7580875615       -7.9267235656
 H         5.6522379245       -3.5357298103       -3.9407716220
 H         4.4190184174       -4.6304800960       -3.9986884948
 H         4.6666525078       -2.2799492106       -6.0287460098
 H         3.7597201567       -2.2343947855       -4.5491260854
 H         0.2594571551       -2.9705106362       -5.7444206884
 H        -0.1101543383       -3.8685546411       -7.1463898463
 H        -1.0744138891       -2.0371309989       -8.2915129934
 H        -0.6506878144       -0.9136522817       -7.1144533727
 H        -5.8889450633       -1.7393747881       -8.0137952435
 H        -5.6658038570       -3.3832789033       -8.3992404430
 H        -6.0010819414       -3.1205979619      -10.6208890173
 H        -4.4975568384       -2.2002810945      -10.5045297487
 H        -9.5751573143       -0.2525401065      -13.4686616365
 H        -9.1130859020        0.7430403183      -12.1812161908
 H       -10.9274536455       -0.4712869829      -10.8326311246
 H       -10.9514864033       -1.8770721433      -11.8647690175
 H       -13.9869117128       -1.9834194145      -10.9873420801
 H       -15.2835923568       -2.5798075337      -12.1166065390
 H       -16.1022014182       -1.7334428232       -9.7482585794
 H       -16.8974627111       -0.8516643276      -11.0820410288
 H       -13.1658605259        2.0414225800       -9.0577753761
 H       -14.0496186265        3.3593405873       -8.4652357578
 H       -12.1799098990        3.3924684214      -11.0114302868
 H       -11.7096326291        4.1332201144       -9.5104339628
 H       -14.2080435025        6.9062550188      -14.0808440794
 H       -14.7930324322        6.2465005884      -12.7892955508
 H       -15.9500612213        5.0376086855      -14.6670237775
 H       -14.8423597609        3.9742755197      -13.6606833635
 H       -16.1319292744        5.0921239050      -19.4626730832
 H       -14.9446512769        6.3433767506      -19.2249701663
 H       -16.9835278279        7.4214544280      -17.8482675031
 H       -18.0113559164        6.7514257724      -19.1639518853
 H       -19.8140317695       11.0466555649      -20.8050222251
 H       -20.0052992736        9.8798016093      -22.3239505630
 H       -18.5707651787       11.0107627114      -21.8844903733
 H       -15.5210171386        9.5561586534      -21.5319772501
 H       -16.7804940456       10.6105267191      -21.1254990438
 H       -16.8430132164        9.8760940776      -22.7782109520
 H       -18.2571878192        6.6767651043      -21.8087770431
 H       -16.5028902003        6.8028958022      -22.0201333277
 H       -17.6722751019        7.5476654061      -23.0848240598
 H       -13.6833808151        6.6987093119      -17.8316993247
 H       -12.7204177321        6.0740357439      -16.5178774098
 H       -14.2933350872        6.9479099577      -16.2358709610
 H       -14.5083413905        3.3065867202      -18.6621509346
 H       -12.8574172610        3.2594861155      -17.7459454616
 H       -13.3394875609        4.5119635150      -18.8060975960
 H       -12.5820582607        7.9095892470      -10.6696505662
 H       -13.4001235509        7.9427610227      -12.2080190469
 H       -11.6953566852        8.1236097855      -12.2682985512
 H       -10.5212629675        4.7178086563      -11.5611718222
 H       -10.5501874165        5.9865972869      -10.4529294909
 H       -10.1398291700        6.4251270928      -12.1352706696
 H       -17.5227888758        2.6523077556      -10.7689495409
 H       -17.8771040470        0.8163308801      -10.4709967698
 H       -16.9026214694        1.3641600088      -11.7778916953
 H       -17.3935738711        1.4608252658       -8.3382329440
 H       -16.6965988442        2.9627791042       -8.3283556137
 H       -15.7931275216        1.5148251971       -7.8203759878
 H       -13.7457021068        0.4231913007      -14.8733453563
 H       -13.8432424785       -1.2020268079      -15.4172986537
 H       -12.2554114978       -0.6317998089      -15.4220732399
 H       -11.7674582679       -2.6204939287      -13.9965817448
 H       -13.4637686805       -3.0888936428      -13.9994733729
 H       -12.6340896565       -3.0553753624      -12.4256867771
 H        -6.8232232423        1.1600156511      -13.2505476105
 H        -5.6888485052        1.1124622789      -11.8960167843
 H        -7.3499363982        1.6206419366      -11.6577766409
 H        -6.0691750297       -0.9402229286      -13.9798442625
 H        -5.8645422276       -2.3210521167      -12.6765328170
 H        -4.7559938458       -0.9612669000      -12.6345160950
 H        -4.4058421455       -3.7406094058       -5.9975291572
 H        -5.5196226565       -2.3205985901       -6.0023997024
 H        -4.2708106206       -2.5181139557       -4.8560086087
 H        -4.9197357463       -0.2305083693       -6.4900311972
 H        -3.9073384342        0.1625805080       -7.8453793797
 H        -3.2706342665        0.2415906006       -6.2700029280
 H         3.5065314048       -2.6584675086       -9.2566952185
 H         4.5116744399       -4.0645443382       -8.7229623184
 H         4.6060049494       -2.5840777422       -7.8827613478
 H         2.8090802198       -5.5004506673       -8.6112864327
 H         1.4106173398       -4.4596065320       -9.0808491824
 H         1.2270837736       -5.4077569179       -7.5919861943
 H         5.5376713963       -8.3435437561       -4.8468617100
 H         4.4733714676       -6.9488312394       -5.2629381789
 H         4.7952790227       -7.5390571400       -3.6006661114
 H         7.7490931835       -5.2127336245       -3.7325318164
 H         7.7980081770       -6.8267445242       -3.1283220284
 H         6.3988613874       -5.7582617049       -2.6195079927
 H        10.9574091679      -11.0871660513       -8.2048059457
 H        10.0428769407       -9.5903614376       -8.4036413108
 H         9.2770590675      -11.1445926230       -8.7688517744
 H         8.2689718528      -12.0073133353       -5.2751492105
 H         9.5546734984      -12.9021148580       -6.0473532077
 H         8.1673680853      -12.5304702576       -6.9860678215
 H        14.6869412646       -8.6159794680       -0.7853310460
 H        14.8601737269       -9.7665150360       -2.1579830037
 H        13.4445152336       -9.9014680709       -1.0669985863
 H        11.8223521701       -7.8793402922       -0.8150610990
 H        12.0093336123       -6.4853274043       -1.9014863404
 H        13.1925637704       -6.6850092765       -0.6120235563
 H        13.0505824013       -8.2147993844       -7.8960243914
 H        14.3700033719       -8.1910945604       -6.7728159913
 H        14.7588555205       -8.2599436832       -8.4561518069
 H        16.0094490389       -6.0709719500       -7.5930245215
 H        15.1557821377       -4.5924461531       -7.8985905979
 H        15.4453151350       -5.7901699613       -9.2410952733
 Na       10.8425703261       -7.1100925024       -6.0866992475
 Na      -13.8405864954        2.4102566325      -13.4376513040
