232

 C        12.9567605282       -5.2606707898      -10.0716697202
 C        12.5905220492       -5.8762798074       -8.7513007050
 O        11.5281615730       -6.3825052162       -8.4753345972
 C        13.9221952918       -6.2254545043       -7.7785216637
 C        13.4751223412       -5.7062228188       -6.3701095987
 O        12.2947885134       -5.4558606997       -6.2115881104
 C        14.3348244368       -5.4621267612       -5.1535719448
 C        13.8501739137       -5.8471499350       -3.7785751970
 C        14.1813508831       -7.3949410301       -3.3778830064
 O        15.0548542914       -8.0029950029       -4.0179655344
 C        13.1711801955       -8.0834076384       -2.3443438040
 C        12.1225436516       -8.6303251915       -3.3349942879
 O        11.3837886877       -7.7759159093       -3.7851731890
 C        11.8918185827      -10.2142248958       -3.4407796560
 C        10.6901768172      -10.7203650592       -4.2431764102
 C        10.6814476100      -10.2531491507       -5.6979162918
 O        11.6031944550       -9.7019926956       -6.2744213447
 C         9.5140954033      -10.6105038556       -6.6659246336
 C         8.3919099229       -9.5098889154       -6.5064346562
 O         7.8642384473       -9.3245305246       -5.4118778522
 C         8.1542797643       -8.4981435831       -7.6488992891
 C         7.0673649759       -7.5290164709       -7.1489250129
 C         7.5074889265       -6.8262210523       -5.7981768608
 O         8.6526971526       -6.7493442464       -5.5479999089
 C         6.4618694335       -6.1646330757       -4.9267667949
 C         5.8834602213       -4.8702097938       -5.4913682021
 O         6.3748149135       -4.4941992454       -6.5825250741
 C         5.0320202088       -3.8212702869       -4.4788280944
 C         4.1244970155       -2.9674262827       -5.3647677798
 C         3.0976997523       -3.8863765446       -6.0444443046
 O         2.4991846888       -4.6694601179       -5.3206352482
 C         2.6764922055       -3.6242279821       -7.4870849812
 C         1.5266316396       -2.5711988892       -7.4809544984
 O         1.7331562812       -1.5187655093       -7.9957780902
 C         0.1254268896       -2.8801514580       -6.9506534251
 C        -0.8913824685       -1.8973538499       -7.3779852270
 C        -2.0440261828       -2.0496145148       -6.3594089109
 O        -1.8396805261       -2.4973752758       -5.2269443111
 C        -3.5658522858       -1.8383002841       -6.8065626168
 C        -3.8514053909       -2.3812560232       -8.2332245336
 O        -2.9819124626       -2.6290604028       -9.0994179993
 C        -5.3738490715       -2.4467822417       -8.6768736487
 C        -5.6380095763       -2.2154263794      -10.1678466720
 C        -6.4224000121       -0.9500478189      -10.4056069068
 O        -6.6271343462       -0.1201606062       -9.5458527154
 C        -6.7876473151       -0.6368497632      -11.9039723612
 C        -8.2780674112       -1.2463418419      -12.1715692100
 O        -8.3706096715       -2.4399151848      -12.0672249382
 C        -9.4769524770       -0.3784069138      -12.4225237264
 C       -10.7474766151       -1.0146019450      -11.8492901380
 C       -11.9556790791       -0.1546314647      -12.4544041678
 O       -11.9418870943        1.0390441413      -12.4663413375
 C       -13.0691838166       -0.9844619629      -13.2774864397
 C       -14.3979248592       -0.6986846524      -12.6047008438
 O       -15.0790728378        0.3430481882      -12.8172856191
 C       -14.9434826575       -1.6755561306      -11.6137526799
 C       -16.0030587635       -0.9797989108      -10.6986988785
 C       -15.2493907043        0.1430110899       -9.9151896139
 O       -14.1108630596       -0.0272005479       -9.5127839333
 C       -15.9281196175        1.5864393760       -9.9078017448
 C       -14.7787613142        2.6340669918      -10.3671294595
 O       -14.8582426520        3.0372090201      -11.4983890260
 C       -13.6249608576        2.9534010607       -9.4906025537
 C       -12.6148515629        3.9745608862      -10.0479602053
 C       -13.1073701151        5.3749041457      -10.5645155632
 O       -14.2266574564        5.7774198541      -10.3340882865
 C       -12.1992935084        6.0950892599      -11.6469703405
 C       -12.8414153650        5.3516930894      -12.9360978318
 O       -12.2867181391        4.3581916586      -13.4244191052
 C       -14.1393380548        5.8470509775      -13.4981944922
 C       -14.9266844783        4.8656072588      -14.3334349433
 C       -14.3872235994        4.1095291436      -15.5607080178
 O       -13.7542963009        3.0488425370      -15.4042422231
 C       -14.3867637857        4.7757636225      -17.0706896288
 C       -15.8752664596        5.1983953932      -17.5730497119
 O       -16.7718868510        5.1374725875      -16.6900970671
 C       -16.0238900348        5.9470920312      -18.9403206218
 C       -17.0868405603        7.0509336609      -18.7637171517
 C       -16.6345887756        8.2444791783      -19.7347801379
 O       -15.6063079122        8.8831558029      -19.4738447154
 C       -17.3633043859        8.6623847158      -21.1225599805
 C       -18.9549802035        9.0537231410      -21.0459262932
 O       -19.7393355593        8.3609404046      -20.4728167179
 C       -19.4272314548       10.5334990854      -21.3589990224
 C       -16.5109712953        9.7915644067      -21.7357695930
 C       -17.2782416717        7.4077425754      -21.9959338697
 C       -13.5603385768        6.0454750859      -16.8005727389
 C       -13.8118396308        3.8625661119      -18.1738617937
 C       -12.2889265869        7.6276171500      -11.6838934059
 C       -10.7590583089        5.7220455127      -11.5257362211
 C       -17.1651334117        1.5300478506      -10.9534184473
 C       -16.4950594647        2.0082023427       -8.5305573096
 C       -13.0753027054       -0.5704114972      -14.7135859406
 C       -12.7287801987       -2.4082737536      -13.1883060010
 C        -6.7274733735        0.9270552717      -12.1042568125
 C        -5.8928650373       -1.2864119307      -12.9604826846
 C        -4.3933914460       -2.5956548350       -5.8019201438
 C        -3.8535170788       -0.3447562394       -6.8531661727
 C         3.7493935279       -3.0176316393       -8.3633449253
 C         2.0199149854       -4.9393919699       -8.1476366756
 C         5.3375935498       -7.2051615511       -4.6570593556
 C         7.0458438011       -5.9770806262       -3.5155702487
 C        10.0494625398      -10.7998443490       -8.1906359786
 C         8.8828659669      -11.8699411283       -6.2447751541
 C        14.0250866465       -9.1327818518       -1.5351981729
 C        12.4358732028       -7.1913708485       -1.2842750466
 C        14.0984202502       -7.7644888071       -7.7846268929
 C        15.2845371474       -5.5229308851       -8.1473429363
 H        13.9748105262       -5.0163782559      -10.0856376177
 H        12.3558223674       -4.3804849266      -10.1219321824
 H        12.6274208996       -5.7304895571      -10.9993837615
 H        14.6432295809       -4.4597403261       -5.0385257858
 H        15.2699637912       -5.9223903051       -5.2765065230
 H        12.7821553453       -5.7212622056       -3.6258850346
 H        14.2470906407       -5.1316028891       -2.9861614346
 H        11.9153338832      -10.6252452844       -2.4140784533
 H        12.8029497450      -10.6153365517       -3.8354516232
 H         9.8086782915      -10.4669904879       -3.7074380536
 H        10.5977818971      -11.8773677324       -4.2519792884
 H         7.8284651173       -8.9790836027       -8.5203132938
 H         9.0826602587       -8.1028626031       -8.0829858408
 H         6.2029730519       -8.1897225465       -7.1898488731
 H         6.8744435786       -6.7617031794       -7.9861822792
 H         5.7247849019       -3.2852418096       -3.8758393603
 H         4.3585829284       -4.3403339212       -3.7935632053
 H         4.6036196128       -2.1925367958       -5.9757943984
 H         3.4857536389       -2.3843005235       -4.7187449069
 H         0.0049575164       -2.9240476689       -5.8562126450
 H        -0.2304677268       -3.9019385280       -7.1883385751
 H        -1.1691153708       -1.9706165751       -8.4666635263
 H        -0.5934840600       -0.8815001761       -7.2237911382
 H        -5.8895153952       -1.7198449829       -8.0079560508
 H        -5.7090162855       -3.4873157635       -8.3933441377
 H        -6.3580618794       -2.9434745508      -10.6044461959
 H        -4.7435971773       -2.2978490717      -10.7353162051
 H        -9.6756418373       -0.3672596532      -13.5011088639
 H        -9.3235365642        0.6675377074      -12.2370756390
 H       -10.6275872013       -0.7440594522      -10.7588651899
 H       -10.7333496463       -2.1413113217      -12.0211006940
 H       -14.1226417272       -1.8998654193      -10.9438359376
 H       -15.3645219230       -2.5686101185      -12.0387653877
 H       -16.3966585296       -1.6887386322       -9.9550245994
 H       -16.8965931568       -0.5994660069      -11.3183167724
 H       -13.0734774113        2.0799542748       -9.1373451247
 H       -13.9590432686        3.2867277426       -8.5165855911
 H       -12.1574709865        3.5416521886      -10.8796466192
 H       -11.8144473953        4.0676531615       -9.3157425806
 H       -13.9130561294        6.7340489108      -14.0999383390
 H       -14.7714235019        6.3828432322      -12.8124893944
 H       -15.7649275207        5.4281213916      -14.7228498553
 H       -15.3019371395        4.1483757274      -13.6299307285
 H       -16.4145222371        5.3460490305      -19.8084822390
 H       -14.9861281485        6.2909415507      -19.2111831709
 H       -17.1190865663        7.3378267940      -17.6974976615
 H       -18.0091587042        6.6302763417      -19.0921996903
 H       -19.9971400024       10.9615639460      -20.5011184662
 H       -19.9494490444       10.4164885686      -22.2853739951
 H       -18.6555898272       11.2724189555      -21.3713403321
 H       -15.5243701367        9.4523109688      -21.9372914266
 H       -16.3970761555       10.6249042090      -20.9920777789
 H       -17.0990227963       10.0717091475      -22.5824126874
 H       -18.0488000308        6.6830374462      -21.7490161766
 H       -16.3576412293        6.9781124157      -21.8364782507
 H       -17.4405943316        7.6013467521      -23.0025046429
 H       -13.5081887303        6.7560068979      -17.6298474293
 H       -12.5916098622        5.6943818263      -16.4755909209
 H       -14.1527946014        6.6046213651      -16.0581129129
 H       -14.6723148900        3.3388218285      -18.5697064386
 H       -13.1223613383        3.1795873570      -17.6915775907
 H       -13.2316652210        4.2862124293      -19.0219695245
 H       -12.1008400837        7.9373471791      -10.7041357833
 H       -13.2533296299        8.0848219641      -12.0223757369
 H       -11.5432295868        8.0807951043      -12.3792468798
 H       -10.6423106543        4.6436162269      -11.6310060825
 H       -10.3764323288        6.0217559932      -10.5217449022
 H       -10.1342073317        6.2204807110      -12.3144197715
 H       -17.6253598418        2.5361627311      -10.9097026997
 H       -17.7677885834        0.7536275181      -10.7138564391
 H       -16.7500731886        1.3918613971      -12.0264178300
 H       -17.2882568473        1.3855766067       -8.0954170439
 H       -16.9880839738        2.9440649530       -8.6319996732
 H       -15.7164664937        2.0481691820       -7.7158944323
 H       -13.6496441418        0.3599119923      -14.8229208666
 H       -13.6556018018       -1.2521794598      -15.2769507134
 H       -12.0416256072       -0.6436133144      -15.1419148464
 H       -11.8545064341       -2.5140505986      -13.8349538384
 H       -13.5479257174       -3.0314560268      -13.6223131069
 H       -12.5684017393       -2.6706080315      -12.1704159148
 H        -6.7267198734        1.2323484243      -13.1741876025
 H        -5.8499738547        1.2497486080      -11.5010091958
 H        -7.6228414405        1.3534489132      -11.7394321878
 H        -6.1617239456       -0.8641636821      -13.8837189379
 H        -6.1707660622       -2.3573728433      -12.9463415489
 H        -4.7991896747       -1.2516874155      -12.7744122583
 H        -4.1772455414       -3.6160267741       -5.8484172133
 H        -5.3827301572       -2.3999875472       -6.0229832502
 H        -4.2101355672       -2.2409011175       -4.8058724919
 H        -4.7809277213        0.0406940383       -6.4454112004
 H        -3.8545988154        0.0870772470       -7.8929245314
 H        -3.0011096046        0.2739852521       -6.3625117935
 H         3.3712754714       -2.5254497301       -9.2563141491
 H         4.5080495797       -3.7838895385       -8.6430658388
 H         4.4201464302       -2.2570218362       -7.8137527509
 H         2.7997343719       -5.5658580966       -8.5048796334
 H         1.5162915564       -4.6626684646       -9.0805690744
 H         1.2707964657       -5.5139596334       -7.5155963350
 H         5.7076553939       -8.1780687488       -4.5606478725
 H         4.6250414592       -7.0712410074       -5.4846046768
 H         4.8940372986       -7.1435798687       -3.6652186233
 H         7.9405863989       -5.3389457301       -3.6850395987
 H         7.3094655655       -6.9223620737       -3.2121669364
 H         6.3052503410       -5.5765048210       -2.8120597644
 H        11.0815071593      -11.1870473682       -8.2160437583
 H        10.1091732410       -9.8215190353       -8.6010392040
 H         9.3924162697      -11.3471129178       -8.8162481987
 H         8.4704054392      -11.8860490492       -5.2567653038
 H         9.6395370844      -12.6658794291       -6.2942378074
 H         8.1133813009      -12.1528953511       -6.9526830040
 H        14.8640258190       -8.6641809229       -0.9370392897
 H        14.5137280740       -9.8457009816       -2.2422136848
 H        13.4447713182       -9.7408757997       -0.8645086561
 H        12.1076408984       -7.8490947275       -0.4561904585
 H        11.6050209966       -6.7276047287       -1.7918947892
 H        13.0262640811       -6.3227961004       -0.9402105263
 H        13.1203578461       -8.1375277038       -8.0982880052
 H        14.4564692007       -8.2144595489       -6.8329742019
 H        14.8379997013       -7.9444536487       -8.5525890772
 H        16.1427877644       -5.7036365898       -7.4786955946
 H        15.0942241764       -4.4413460186       -8.0764698916
 H        15.5312004292       -5.7701736507       -9.1779664637
 Na       10.8932075876       -7.2758065010       -6.0622473487
 Na      -13.9317140149        2.4636645071      -13.3312435952
