232

 C        12.8829153279       -5.2256401860       -9.9959293127
 C        12.7486367988       -5.8910424762       -8.7146107017
 O        11.6259105442       -6.3271028284       -8.4056314835
 C        13.8189760024       -6.1230857553       -7.6817692750
 C        13.3520903709       -5.7118104283       -6.1982165199
 O        12.1744177395       -5.5117194646       -5.9567506172
 C        14.4590060034       -5.6021547632       -5.0564779535
 C        13.7727925099       -6.0253903959       -3.8327627233
 C        14.1088155021       -7.4713488231       -3.4064115491
 O        14.9930037845       -8.0530250236       -3.9329242038
 C        13.1348663450       -8.0746903324       -2.3689354924
 C        11.9948664292       -8.6423322462       -3.2981444741
 O        11.4228814538       -7.8584872174       -4.0360441734
 C        11.8513891332      -10.0731563504       -3.4455048559
 C        10.7127347505      -10.5812965450       -4.3670459185
 C        10.7675882073      -10.1908514646       -5.8598808255
 O        11.7115531297       -9.5762557216       -6.2747816417
 C         9.4927084088      -10.5746558212       -6.7225106112
 C         8.4686908561       -9.4431466259       -6.5238230642
 O         7.9033646069       -9.3742621833       -5.4136255814
 C         8.0584366313       -8.4667573470       -7.6531568619
 C         7.0257209306       -7.3978228202       -7.2135399522
 C         7.5579463832       -6.7344101728       -5.9262879609
 O         8.7861820096       -6.6383277070       -5.6271458622
 C         6.4977106542       -6.1741005717       -4.9396632285
 C         6.0551762590       -4.6863175575       -5.4282260617
 O         6.2613321542       -4.3098689389       -6.5378058495
 C         5.2302724563       -3.8517690951       -4.5357630950
 C         4.1881681047       -3.0763921963       -5.3407169483
 C         3.0499906387       -3.8888662193       -6.0216254442
 O         2.5114413880       -4.8518216361       -5.4945343917
 C         2.7490008506       -3.6342262433       -7.6125458267
 C         1.4392829074       -2.5827631078       -7.6494911002
 O         1.6082503808       -1.5175406209       -8.2008365893
 C         0.1342195841       -2.9478552377       -7.0119773071
 C        -0.9236574779       -1.8632532071       -7.3048158709
 C        -2.1168341257       -2.0723277531       -6.3765298979
 O        -1.8644494478       -2.5029983270       -5.2668870882
 C        -3.5681643111       -1.8345725398       -6.8778799510
 C        -3.8907470770       -2.3501214568       -8.3388630864
 O        -3.0999518416       -2.7593059464       -9.1615114268
 C        -5.4039010710       -2.4886021725       -8.6217015032
 C        -5.7141753740       -2.2567671306      -10.1548268207
 C        -6.3961031713       -0.9016590849      -10.4766871112
 O        -6.5957519422       -0.0450608450       -9.6564257033
 C        -6.7931349537       -0.6574870602      -11.9605824380
 C        -8.2440353530       -1.2572797217      -12.1219978348
 O        -8.3614232685       -2.4775223100      -11.9816625920
 C        -9.4451664566       -0.3521504710      -12.4725013344
 C       -10.6955986189       -0.8945835462      -11.9135632781
 C       -11.8693804934       -0.1931004628      -12.4355322628
 O       -11.9495268658        1.0111489678      -12.4274921337
 C       -13.0269242629       -1.0724883806      -13.1762200825
 C       -14.4129453595       -0.6637713061      -12.5467037921
 O       -14.9978540993        0.3325051798      -12.8628469025
 C       -15.0319134333       -1.7523141160      -11.5568618662
 C       -15.9883695667       -1.0110992992      -10.6157992144
 C       -15.2948587668        0.1843522392       -9.9284823374
 O       -14.1764594538        0.0573830470       -9.4681317592
 C       -15.9276876718        1.5904303714       -9.9157070187
 C       -14.8171238942        2.5958635830      -10.3895204808
 O       -15.0001995008        3.1459735360      -11.4666272710
 C       -13.6206377624        2.9819986397       -9.4625983759
 C       -12.6021495774        3.9850732144      -10.0210370578
 C       -13.1237113969        5.3175909228      -10.6832912362
 O       -14.2132596616        5.7627135539      -10.4128059707
 C       -12.0965828693        6.0071607795      -11.6900995451
 C       -12.8050012690        5.3466207468      -13.0095458927
 O       -12.1904426803        4.2865200903      -13.3314713485
 C       -14.1383770554        5.8310945739      -13.5279537709
 C       -15.0980022191        4.9743429881      -14.4933732518
 C       -14.4592527283        4.1338819323      -15.6435863039
 O       -13.9511296677        3.0865050473      -15.4876859591
 C       -14.3603145140        4.7586734893      -17.0103246161
 C       -15.8449072853        5.2124158387      -17.3216742051
 O       -16.7883455294        4.8571613894      -16.6545954996
 C       -16.1048395548        5.8383968230      -18.7628655605
 C       -17.1874466854        7.1042709443      -18.9033243219
 C       -16.6825565525        8.3182492503      -19.7011469327
 O       -15.6785017731        8.8284472186      -19.3465490969
 C       -17.4335940470        8.7377120909      -21.0641608333
 C       -18.9112635163        9.1473027893      -20.8784649172
 O       -19.7761376808        8.3298313032      -20.5617732509
 C       -19.3596683985       10.6354839027      -21.1772073924
 C       -16.5445082065        9.8736731577      -21.7905452275
 C       -17.2070414209        7.3993692233      -21.9177159268
 C       -13.3539163405        5.9422764173      -16.9486008012
 C       -13.8406193334        3.8390140718      -18.1097444135
 C       -12.2743226597        7.5485031789      -11.6278025866
 C       -10.6014569143        5.6049208809      -11.5681225858
 C       -17.1076943694        1.8268498447      -10.9307882737
 C       -16.4296214347        1.9578191541       -8.4926988076
 C       -12.8911892663       -0.4543943997      -14.6829857664
 C       -12.7819440969       -2.6311691443      -13.0643377055
 C        -6.8201442084        0.9458591361      -12.0856304009
 C        -5.9159664127       -1.4042076578      -13.0069834548
 C        -4.4241728830       -2.5094137800       -5.7058527386
 C        -3.7776579540       -0.2459140577       -6.8692513534
 C         3.7387260074       -3.0064206980       -8.4816670064
 C         2.1693439597       -5.0139525654       -8.0745305925
 C         5.1539308446       -7.2068608893       -4.7521475135
 C         7.1505717953       -5.8685510244       -3.4530422804
 C        10.0561674152      -10.8123114211       -8.1024314956
 C         8.7782761175      -11.9322220349       -6.2402607020
 C        13.9521467365       -9.1847693807       -1.5884506068
 C        12.5456526506       -7.0946128303       -1.3404221175
 C        14.1493050921       -7.6285856383       -7.7033125116
 C        15.2202113572       -5.4247800677       -8.0695370035
 H        13.8626098250       -5.1712818114      -10.3897166796
 H        12.4185352424       -4.3134247395       -9.9003039171
 H        12.2130981810       -5.6471733517      -10.7266580215
 H        14.8810610025       -4.6622736422       -4.8269976387
 H        15.3145047628       -6.2669175889       -5.2782452292
 H        12.6662125233       -5.8839533686       -3.8826098751
 H        13.9716073141       -5.3954087219       -2.9605079111
 H        11.6863814281      -10.4879671771       -2.4584223217
 H        12.8578354500      -10.4795302779       -3.6617167265
 H         9.7533738728      -10.4250993179       -3.8451011195
 H        10.7709057887      -11.6796269378       -4.2994068163
 H         7.7156604241       -9.0756311309       -8.4455858945
 H         8.8446740766       -8.0476409767       -8.1935874287
 H         6.0558453800       -7.8591049528       -7.1565815592
 H         6.9987331285       -6.6996667808       -8.0377601463
 H         5.9087267661       -3.1152123641       -4.0024068661
 H         4.7431931355       -4.4277179905       -3.7513294973
 H         4.6581756702       -2.5257484097       -6.1488661215
 H         3.8355564724       -2.2666418779       -4.7005167795
 H         0.2291755708       -3.1524443500       -5.9280361160
 H        -0.1722488822       -3.9551244702       -7.3250904704
 H        -1.1788323760       -1.9117535845       -8.3529365908
 H        -0.4570531273       -0.7676562890       -7.1246472948
 H        -5.8674545083       -1.7197976516       -7.9778963205
 H        -5.6549479465       -3.5386199596       -8.1099965706
 H        -6.4693197697       -2.9438563241      -10.6424397946
 H        -4.8204692813       -2.3727672329      -10.7277701108
 H        -9.5655602685       -0.3110029099      -13.5850773504
 H        -9.2835847702        0.7055394613      -12.2697140686
 H       -10.5069178326       -0.6693295843      -10.7876219957
 H       -10.8086704899       -2.0028351627      -12.1389519764
 H       -14.2609153568       -2.2751364641      -10.9866683235
 H       -15.7072187012       -2.4116446422      -12.0493928574
 H       -16.4891366643       -1.6932007698       -9.8545483972
 H       -16.7524701636       -0.6401235752      -11.2649690488
 H       -13.1443001666        2.2166792475       -9.0058268628
 H       -13.9940094415        3.4647388074       -8.4928027484
 H       -12.0752160873        3.4709071556      -10.8227137404
 H       -11.9517652836        4.1859578550       -9.2143920885
 H       -13.9800070811        6.7825627730      -14.0339814840
 H       -14.7178471046        6.2776968145      -12.6864373659
 H       -15.8307121118        5.7012874429      -14.8549371408
 H       -15.6283633395        4.2484518001      -13.8624932460
 H       -16.5559973379        5.1261028740      -19.4963225305
 H       -15.1172283289        6.1385556468      -19.1918118528
 H       -17.1627980986        7.5511519348      -17.9225169747
 H       -18.2008945029        6.7264153848      -19.1313262139
 H       -20.1645831314       10.9588015351      -20.5770854420
 H       -19.5661056877       10.5795860464      -22.2332338991
 H       -18.6281303510       11.3412239569      -20.8946695289
 H       -15.6632011884        9.2987176942      -22.2303222383
 H       -16.0828186703       10.5485906096      -21.1120296107
 H       -17.1702872612       10.3031739993      -22.5431345234
 H       -17.7712881550        6.5508860128      -21.6630965103
 H       -16.1640176012        7.1732957485      -21.8371691714
 H       -17.4949106135        7.6637779618      -22.9802594385
 H       -13.2084290789        6.4022516587      -17.9213322386
 H       -12.4133538375        5.5193297805      -16.5260490231
 H       -13.8608766784        6.7236480558      -16.3747098994
 H       -14.6513448282        3.2047580877      -18.4543360673
 H       -13.1031055672        3.2611710493      -17.6200702600
 H       -13.2767758150        4.2968869129      -18.9622442726
 H       -11.7003747573        7.9676757551      -10.7779604999
 H       -13.3054905914        7.8751536160      -11.5880605611
 H       -11.9099306953        8.0060731349      -12.5237268670
 H       -10.4119694785        4.4818368432      -11.7452940534
 H       -10.1335266424        5.9802852882      -10.6241042736
 H       -10.0717392857        6.0651765983      -12.4064863776
 H       -17.2476849725        2.8632069121      -10.9923145640
 H       -17.9442189124        1.1767615899      -10.5900811241
 H       -16.7504593659        1.4628325098      -11.9374254005
 H       -17.0430086370        1.2372431619       -7.9403480300
 H       -17.1907876265        2.7909533566       -8.6987404029
 H       -15.6838182901        2.2915340564       -7.7914914146
 H       -13.3509400805        0.5152377258      -14.8070302576
 H       -13.5767719203       -1.0782391430      -15.3634923508
 H       -11.8871004813       -0.5866095718      -14.9719553971
 H       -11.9346405462       -2.9734170037      -13.5723562777
 H       -13.6698210422       -3.0710243171      -13.5637676840
 H       -12.8362333036       -2.9207003577      -11.9964298722
 H        -7.0132737210        1.3526638160      -13.0465588880
 H        -5.8829560369        1.2597471964      -11.5218440498
 H        -7.7179133078        1.2830394958      -11.4752294747
 H        -6.1055329770       -1.0017053004      -14.0004813862
 H        -6.1275143549       -2.4282135113      -13.0180675162
 H        -4.8908172817       -1.2481111670      -12.7652835739
 H        -4.1501634820       -3.5214486189       -5.5654683939
 H        -5.4747995453       -2.4271236868       -5.9208909973
 H        -4.2476761195       -1.9062095132       -4.7609154432
 H        -4.7868178115        0.0800117638       -6.4760824183
 H        -3.7739844785        0.2055574211       -7.8065374545
 H        -3.0133176171        0.3496003899       -6.2311984903
 H         3.4390282735       -2.8997436526       -9.5214875489
 H         4.6929097595       -3.5330615962       -8.4029796202
 H         3.9981441154       -2.0055621763       -8.1112700665
 H         3.0404112927       -5.6733034336       -8.2931293486
 H         1.6917900929       -5.0484366969       -9.0219426810
 H         1.5955303532       -5.4509570629       -7.3230378782
 H         5.3782095406       -8.0488074052       -4.1330996042
 H         4.7244324523       -7.4912543554       -5.7501545831
 H         4.4621744414       -6.7889260554       -4.0772636260
 H         8.0893724576       -5.3758636916       -3.7263133186
 H         7.2418354234       -6.8017262600       -2.8528368719
 H         6.5366295963       -5.2233235573       -2.8994073739
 H        10.9010043244      -11.4709466894       -7.9210284846
 H        10.4344368391       -9.9637159340       -8.5766475275
 H         9.3430656161      -11.2907517014       -8.8181462209
 H         8.4894205330      -11.9167801637       -5.1974830437
 H         9.4787614886      -12.7651776827       -6.3323655223
 H         7.8583389986      -12.1945513485       -6.7897580922
 H        14.8698584452       -8.8577945281       -1.1075859685
 H        14.2668072077       -9.9127304168       -2.3000522549
 H        13.3528799331       -9.6722639065       -0.8402663273
 H        12.4068294672       -7.5873549630       -0.3693443203
 H        11.5855986199       -6.7101944847       -1.7765668844
 H        13.0816684434       -6.1848778466       -1.2727603126
 H        13.2110802765       -8.2183738499       -7.7725311597
 H        14.8638278622       -7.8684930061       -6.8757358845
 H        14.7541943759       -7.7353295370       -8.6729332935
 H        15.9377634570       -5.4692645612       -7.3039772535
 H        15.1268022145       -4.3358288921       -8.3475929531
 H        15.5647351983       -5.9337745052       -9.0198034620
 Na       10.9072996970       -7.4338280158       -6.1486435714
 Na      -13.8363673939        2.3683259028      -13.2036597339
