232

 C       -18.8506003078       -7.0724108277       -2.3579667935
 C       -18.3350375952       -8.5088430830       -2.0474090974
 O       -17.4633352277       -9.0246835419       -2.6790495641
 C       -19.2138153957       -9.3788858740       -0.9502393097
 C       -18.1233858502      -10.1825428085       -0.0651473748
 O       -17.7208979744      -11.2908847900       -0.4210530558
 C       -17.7787757212       -9.5859579510        1.2688248846
 C       -16.2560274499       -9.4869696759        1.5016169365
 C       -15.5200509606       -8.5004120199        0.4392271558
 O       -16.2316763730       -7.7266027406       -0.2034178928
 C       -13.9710590183       -8.6533238085        0.2533329214
 C       -13.9025911861       -9.6460645950       -0.9695917300
 O       -14.5730584792      -10.6256511997       -0.9975379609
 C       -13.2029151535       -9.1981337023       -2.2464939839
 C       -12.7616785264      -10.2804800014       -3.1849341054
 C       -13.8011854921      -10.8093969406       -4.2599522349
 O       -14.8880021743      -11.1805642573       -3.9340571342
 C       -13.4207815955      -10.7580152179       -5.8163452270
 C       -12.8940459025       -9.2655009986       -6.2433381259
 O       -12.0357835933       -8.6245574419       -5.6939032987
 C       -13.4170820908       -8.7587833342       -7.5832757598
 C       -12.7030825454       -7.5896880300       -8.1563614493
 C       -13.7015420233       -6.7488219927       -8.9961014931
 O       -14.8479426663       -7.1445349023       -9.0867810810
 C       -13.3811847019       -5.5568677355       -9.9687268086
 C       -11.8236769562       -5.0717237786       -9.7844970865
 O       -10.9366851281       -5.9317730347       -9.6282339237
 C       -11.6119517413       -3.5562030567       -9.6148196077
 C       -10.2926166323       -3.0093670620      -10.2529622220
 C       -10.4528961748       -1.4600838402      -10.3138947488
 O       -11.4361730404       -0.9004647704      -10.6412270987
 C        -9.2163445808       -0.6097789709      -10.1467781882
 C        -8.1276773535       -1.0452683103      -11.0692037735
 O        -8.4378338068       -1.4770377730      -12.1569178185
 C        -6.6818533798       -0.9631979594      -10.5381287216
 C        -5.6420615850       -1.2135512388      -11.7106920424
 C        -4.5756631460       -0.0387712026      -11.7938460268
 O        -4.8437546472        1.0840539547      -11.5016035025
 C        -3.1215182016       -0.3193890298      -12.5491455031
 C        -2.0399246860       -0.9833413206      -11.6879598309
 O        -1.0659498446       -1.4095858922      -12.2186279897
 C        -2.2010909972       -0.9507578845      -10.2179265230
 C        -0.8022484968       -1.1406056628       -9.6442119014
 C        -0.3824652718       -0.1018838439       -8.5736159531
 O        -0.9261598695        1.0781504830       -8.6099859831
 C         0.9478110759       -0.2942379541       -7.6875793988
 C         2.0572432157        0.2461917667       -8.5974534759
 O         2.7029567371       -0.5918359494       -9.2081848670
 C         2.2267942480        1.6819528561       -8.6496328029
 C         3.6482556074        2.0611583895       -9.2045699638
 C         3.8287072457        3.5651760520       -9.1085278573
 O         2.9947398079        4.2048413597       -8.4710026504
 C         5.1302266328        4.1764255743       -9.7216160835
 C         4.7580413455        4.4982541238      -11.3157299200
 O         5.1273757257        3.7293064864      -12.1443419459
 C         3.8603772131        5.7889690975      -11.6002111880
 C         4.6343424614        7.0875097236      -11.9487619702
 C         5.1674916539        6.9930774168      -13.4765945920
 O         5.4375626498        5.9405166831      -14.0015459571
 C         5.3596826746        8.3347778545      -14.2211654276
 C         5.9291243125        7.8406196254      -15.6567065809
 O         5.1380876696        7.7432076486      -16.5738178511
 C         7.3954011213        7.3414991359      -15.6666538691
 C         7.8209211278        6.8411448919      -17.0392545542
 C         7.3421846294        5.4315414992      -17.3675474275
 O         6.5890577048        4.7922447913      -16.6714762715
 C         7.9943838536        4.8556648513      -18.6588543487
 C         9.4471219819        4.3150027552      -18.2596090372
 O         9.8343378076        4.3864468075      -17.1298019806
 C        10.3237145432        3.6838029814      -19.4035665949
 C        11.2802263686        2.6859512302      -18.7473542532
 C        10.4797421257        1.4153288310      -18.4403447285
 O         9.3793275399        1.1839680807      -18.9393673956
 C        11.0467828176        0.3485225002      -17.3933334840
 C        10.2805723299        0.6429205847      -16.0213554562
 O        10.8577097098        1.1676134084      -15.0736831303
 C         8.7915114561        0.1710091396      -16.0243761392
 C         8.0877096948        0.1771263925      -14.5768593292
 C         6.6432759000        0.6588878964      -14.5463039458
 O         6.5056105361        1.8671755164      -14.4987655185
 C         5.3433665855       -0.3230085296      -14.5277531622
 C         4.4066148464        0.3352128992      -15.6825722797
 O         4.2722424599        1.5550716527      -15.7035527011
 C         3.6870088681       -0.4905221548      -16.7932869946
 C         5.7283805841       -1.7863634408      -14.8478634959
 C         4.5483566289       -0.2895118905      -13.2321154663
 C        10.8981391168       -0.9892843595      -18.2160505970
 C        12.6244969041        0.5075309136      -17.2157731740
 C         7.2148118878        3.7262492976      -19.1370616657
 C         8.0916227265        5.9013909032      -19.7776817217
 C         4.0987240471        9.2522087040      -14.4870341573
 C         6.4245306942        9.1767931057      -13.4124035397
 C         5.4807711409        5.5673162351       -8.9965051134
 C         6.4443063428        3.3050777242       -9.7025223301
 C         0.7992096863        0.3736070244       -6.3136132438
 C         1.0740913875       -1.8378114718       -7.3622091955
 C        -3.4250771188       -1.2506288917      -13.7471561496
 C        -2.6004278677        0.9374091946      -13.1857530323
 C        -9.3585462775        0.9313565709      -10.6446184860
 C        -8.7527927738       -0.5805386521       -8.5986048437
 C       -13.2962104052       -6.4591100414      -11.2550180196
 C       -14.5365075532       -4.5196991986       -9.9399909616
 C       -12.1099500818      -11.6319522417       -6.1756379425
 C       -14.5912996336      -11.2465791859       -6.6331480700
 C       -13.5016056139       -7.1990298687       -0.0413080642
 C       -13.3056144253       -9.1025482174        1.6063471528
 C       -20.2847706599       -8.5931231657       -0.2291671678
 C       -19.9432059526      -10.4391614554       -1.8735122090
 H       -18.0535976823       -6.4068113726       -2.7297212445
 H       -19.2030920122       -6.6784320429       -1.4140817306
 H       -19.6911260834       -7.1439647359       -3.0070423656
 H       -18.2675072819      -10.2584197553        2.0316854760
 H       -18.1966440732       -8.5543136290        1.3169547415
 H       -15.8497265512      -10.5202930198        1.5108041767
 H       -16.0997609973       -8.9647096592        2.4843499042
 H       -12.4175942419       -8.4870491148       -1.9957490309
 H       -13.9523155973       -8.6278203714       -2.7593203447
 H       -12.1816137698      -11.1550194737       -2.6927589205
 H       -11.9985992453       -9.8146048715       -3.7950701772
 H       -14.4639178110       -8.5665253098       -7.3983071902
 H       -13.3931880458       -9.6294543953       -8.2569092602
 H       -11.8883120508       -7.9139357098       -8.7413492540
 H       -12.3968896683       -6.8939514262       -7.4045570049
 H       -11.4455786009       -3.3333228363       -8.5851014793
 H       -12.4116726224       -3.0494967553      -10.2199947336
 H       -10.2772077371       -3.3479858057      -11.2833972364
 H        -9.4105372198       -3.2519530168       -9.7014469017
 H        -6.7205534061       -1.5500798528       -9.6537203071
 H        -6.5453287555        0.0515581657      -10.2155491729
 H        -6.1431052507       -1.1857715777      -12.6414337983
 H        -5.1295622954       -2.1913378756      -11.4603623568
 H        -2.9060408255       -1.7256694371       -9.8748884177
 H        -2.5495384102        0.0352136660       -9.8034752334
 H        -0.0130422043       -1.0984334707      -10.4467435034
 H        -0.7439254726       -2.1310065682       -9.1505316279
 H         2.1585274861        2.1207906542       -7.5819478765
 H         1.4480191453        2.1583669991       -9.1962209718
 H         3.6230835525        1.7523913926      -10.2101393079
 H         4.3925294866        1.5018162476       -8.6758951513
 H         3.3469864749        6.0426986170      -10.6509471529
 H         3.2011263762        5.5526142434      -12.5300413813
 H         5.4194288061        7.1731384250      -11.1671507881
 H         4.0003335897        7.9655357176      -11.8597106632
 H         7.4805264156        6.5658112784      -14.8635282854
 H         8.0377528128        8.1600635330      -15.3679112275
 H         8.8066870934        6.9037017490      -17.1690994008
 H         7.3239803739        7.4957819356      -17.8128457449
 H        10.9183204311        4.6348398446      -19.7424926561
 H         9.8409827574        3.2797526177      -20.2643257333
 H        11.6217471546        3.1588564696      -17.8633789062
 H        12.2321036965        2.4450853655      -19.2712036514
 H         8.8144843531       -0.8086939164      -16.4886518654
 H         8.2742064524        0.9332286540      -16.7040305152
 H         8.6573746702        0.8580903650      -13.9500868048
 H         8.3744508783       -0.7987647711      -14.0850643144
 H         4.1334517850       -1.1874725102      -17.4515227410
 H         3.1963448071        0.2568641813      -17.2863917985
 H         2.8315066319       -0.9220062625      -16.1702967701
 H         4.8922711206       -2.2803199410      -15.2253869113
 H         6.1536243608       -2.4353779942      -14.0537850342
 H         6.4397758278       -1.7383077858      -15.6501162576
 H         3.6184769515       -0.6895362177      -13.5306560051
 H         4.3723106354        0.7568838566      -13.1231036586
 H         4.9377200785       -0.7624454907      -12.3757174337
 H        11.3063983250       -0.8342454396      -19.2133159264
 H         9.8146177115       -1.2419268235      -18.1888699521
 H        11.4979438373       -1.7824222771      -17.7735990650
 H        13.0042731620        0.6681250689      -18.2149344368
 H        13.3069289114       -0.2325817678      -16.8070186245
 H        12.6671415094        1.3909375577      -16.5834235614
 H         6.4685139725        3.8917178198      -19.8985049260
 H         6.7941582133        3.1997335995      -18.2461321589
 H         7.8543047900        2.9575846090      -19.6081469351
 H         7.8806830406        6.9336836757      -19.5310303795
 H         7.4254982557        5.6893380367      -20.6843295146
 H         9.0553919781        5.9504673763      -20.2461130155
 H         4.1007858658       10.2161050023      -13.9651461625
 H         3.2304248959        8.6950592711      -14.1025175912
 H         3.9506037501        9.3155516732      -15.5792760362
 H         6.7005276429       10.0118731998      -14.1057763307
 H         7.3289160034        8.6359171909      -12.9839174453
 H         5.9442899861        9.7137044953      -12.5856697553
 H         5.6875265892        5.2618660226       -7.9818255828
 H         4.4924182846        6.1042952205       -8.9052032994
 H         6.2905736323        6.0491267168       -9.5098663810
 H         7.2192214294        3.9993262344      -10.0707295623
 H         6.3089313596        2.3637202006      -10.1619153447
 H         6.7263319211        2.9874726991       -8.6871782072
 H         0.7186984695        1.4628313068       -6.4092539325
 H         1.7938619289        0.2063371220       -5.8205072731
 H        -0.1861174528        0.0636057675       -5.8555243145
 H         0.2034093106       -2.3366187909       -6.8551904107
 H         1.9062065692       -1.9637646895       -6.6313629597
 H         1.1709190220       -2.4345683172       -8.3130615679
 H        -4.1352574899       -2.0229460072      -13.4582935542
 H        -2.4063409825       -1.6061916830      -14.0296883698
 H        -3.7515317946       -0.7822877576      -14.6217417008
 H        -1.9051044948        0.7752906898      -13.9983930987
 H        -2.3126403959        1.6396751071      -12.4599132258
 H        -3.4478630952        1.2538725607      -13.6709135749
 H       -10.1126523771        1.3440039740       -9.9168798078
 H        -9.7049852217        1.0855934952      -11.6157265817
 H        -8.3873366902        1.3580587448      -10.4861476469
 H        -9.7141852036       -0.4111866006       -8.0728323729
 H        -7.9049509885        0.0820158984       -8.4570164247
 H        -8.4530655236       -1.6196494331       -8.4606255114
 H       -12.9890981354       -6.0727024486      -12.1983478960
 H       -14.2818380164       -6.9282443885      -11.4262118995
 H       -12.5752975909       -7.2175555592      -11.0294196977
 H       -15.3475996014       -5.2356482402       -9.9827578548
 H       -14.4313004229       -3.8079572586      -10.7147528406
 H       -14.6063478672       -4.0140169326       -8.9601796542
 H       -11.2488218959      -11.0769944638       -5.7828839340
 H       -12.0275454104      -11.7577574182       -7.2306226729
 H       -12.2479110117      -12.5762381176       -5.7330182239
 H       -15.5817252240      -10.8120167245       -6.2513237915
 H       -14.6239237127      -12.3748940523       -6.5909775280
 H       -14.4623019757      -10.8781447278       -7.6077656802
 H       -13.9893415529       -6.7504527560       -0.8857639841
 H       -12.3872343732       -7.1290894472       -0.1315756062
 H       -13.8271759362       -6.5821241019        0.8219405987
 H       -13.6217519691      -10.1176665876        1.8936950849
 H       -13.6245464318       -8.3211368314        2.2689377866
 H       -12.2344472631       -9.1356896586        1.3878062171
 H       -19.8993394904       -7.8682298591        0.4548539671
 H       -20.8505981655       -9.1865320608        0.4281998731
 H       -20.9978039986       -8.1055732766       -0.8913287417
 H       -20.3528784386      -11.2192561124       -1.1626799546
 H       -19.2372066669      -10.8637093050       -2.5417527252
 H       -20.7670851573      -10.0964239686       -2.4917399948
 Na      -16.4934475158      -11.0816517556       -2.2735906741
 Na        5.2560278475        3.8195022056      -14.9731982408
