232

 C        12.6993667027       -4.8461689285       -9.6701843837
 C        12.6370711913       -5.8314288784       -8.4346177062
 O        11.8061439039       -6.7333209938       -8.3914190955
 C        13.8766524525       -5.8193687517       -7.4455995614
 C        13.4436976283       -5.7593612011       -5.8972648970
 O        12.3155788764       -5.8647678760       -5.5121855552
 C        14.6136808660       -5.5263624137       -4.8750541486
 C        14.2705631980       -5.9815831331       -3.3501294929
 C        14.0570289606       -7.5584374826       -3.2178985456
 O        14.8387715530       -8.3252053150       -3.7887601083
 C        12.9164325876       -8.2043313935       -2.3287671449
 C        11.9017256836       -8.6390252572       -3.4108239227
 O        11.2074199085       -7.8184776232       -3.9903536960
 C        11.7826098907      -10.1563425932       -3.7148978338
 C        10.4500360693      -10.5126139475       -4.4817455804
 C        10.4672335657      -10.1480793942       -5.9509197109
 O        11.4033245830       -9.5467242621       -6.4728341853
 C         9.3746229991      -10.5933934285       -6.9340877109
 C         8.4100030374       -9.3456296257       -6.6089287195
 O         7.8871157620       -9.1882117269       -5.5467131579
 C         8.2053615885       -8.3138563408       -7.7662273182
 C         7.2908475087       -7.1295747283       -7.3867275259
 C         7.6962343453       -6.4761760287       -6.0868637622
 O         8.8467306738       -6.2436608411       -5.6969313192
 C         6.5219280553       -5.8191605735       -5.0874518909
 C         6.1277207257       -4.5083426810       -5.7489247578
 O         6.5761364335       -4.2039428561       -6.8313380119
 C         5.2952318770       -3.5305394637       -4.8213555361
 C         4.1033553347       -2.9642507973       -5.7568966573
 C         3.2242881097       -4.0262203927       -6.4202414086
 O         2.8326281639       -5.0155922204       -5.8355517974
 C         2.7137313989       -3.7166153923       -7.8920030599
 C         1.4262053479       -2.7869111604       -8.0541854422
 O         1.4186649880       -1.7915712428       -8.6976120083
 C         0.1739878710       -3.2257243756       -7.2417810925
 C        -0.9891768023       -2.1611305737       -7.4714778482
 C        -2.1493224742       -2.3872952189       -6.5421916372
 O        -2.0767087274       -2.9806628508       -5.4904807604
 C        -3.5675794877       -1.6524665576       -6.8393751338
 C        -4.1053935407       -2.4225177173       -8.1914137729
 O        -3.3944525180       -2.9968417852       -9.0074420824
 C        -5.6220688977       -2.2717031471       -8.4863067941
 C        -5.8172081702       -2.2478557724       -9.9801665035
 C        -6.1327071973       -0.7925446901      -10.4101678347
 O        -5.9946287817        0.2218389799       -9.7574849628
 C        -6.6758125628       -0.7825549147      -12.0038676654
 C        -8.0116559163       -1.4330632223      -11.9776188337
 O        -8.3032783012       -2.5940978269      -11.8313109951
 C        -9.2480497042       -0.4549787223      -12.2936381116
 C       -10.5690753960       -1.0753685502      -11.8009534717
 C       -11.7801788966       -0.4258211978      -12.2975584072
 O       -12.0676921698        0.7584057915      -12.0342505654
 C       -12.9043263259       -1.3107883403      -12.9887584838
 C       -14.3425143350       -0.7457055647      -12.4585085870
 O       -14.8422001140        0.2626006986      -12.9467081457
 C       -15.0992636399       -1.5027592265      -11.3809060271
 C       -16.1937356199       -0.5941276049      -10.7831326974
 C       -15.5262278831        0.4881300720       -9.8840050079
 O       -14.3743040413        0.2289276576       -9.6571360358
 C       -16.1079823583        1.9340610275       -9.6474040772
 C       -14.9890320268        2.7371808402      -10.2228630743
 O       -14.9186531921        2.9375016037      -11.4577771257
 C       -13.7878796622        3.2133641178       -9.3558742178
 C       -12.6337182125        3.8803274851      -10.0552986993
 C       -12.9652249344        5.2896791493      -10.5528727708
 O       -13.7189556634        6.0786837351      -10.0182513705
 C       -12.0211994551        5.7186507483      -11.8186657773
 C       -12.6369259882        5.2356911551      -13.1687378372
 O       -12.3395014177        4.1434680380      -13.6527038437
 C       -13.6199161533        6.1048100573      -13.8694193908
 C       -14.8860772006        5.3127171932      -14.6047905094
 C       -14.6638951353        4.1393299912      -15.6251114354
 O       -14.3961420789        2.9695673513      -15.3102906635
 C       -14.6900510038        4.5962073006      -17.1380762305
 C       -16.0594249301        5.1371383915      -17.6686190374
 O       -17.0771970555        4.8564055442      -17.0135032836
 C       -16.1895716175        5.8484186587      -18.9649850521
 C       -17.2401717053        6.9393140591      -18.8815595863
 C       -16.7238291787        8.3483699052      -19.4066250980
 O       -16.0889724514        9.1079187244      -18.6558817255
 C       -17.2314870779        8.7405947985      -20.8861515580
 C       -18.7748477719        9.1020212283      -20.4252332465
 O       -19.6446153586        8.2769622164      -20.4682908689
 C       -18.9293474877       10.5234489565      -19.8317928320
 C       -16.4014524484        9.8610924227      -21.5122497994
 C       -17.3166532469        7.3595645200      -21.7433939804
 C       -13.6302501952        5.6605785611      -17.1954603024
 C       -14.1472155239        3.3756414286      -17.9709709218
 C       -11.8273716502        7.2043850467      -11.6198350777
 C       -10.6237561396        5.0275793217      -11.7760063456
 C       -17.3983092497        2.2247645420      -10.4885035269
 C       -16.4591556473        2.2448707254       -8.1886285393
 C       -12.8170427606       -0.9997516801      -14.4555120234
 C       -12.9275972261       -2.9193309421      -12.8396984363
 C        -6.6241912217        0.6410817942      -12.4782013470
 C        -5.7989002194       -1.6790285416      -12.9741828160
 C        -4.5696301134       -1.8485438213       -5.6361739188
 C        -3.3925798650       -0.2028056317       -7.2939117163
 C         3.8373199693       -3.1302382075       -8.8264952987
 C         2.4075278110       -5.1339758749       -8.4444758915
 C         5.3857720163       -6.8841839234       -4.8484804635
 C         7.1707102848       -5.4037649413       -3.7165671092
 C         9.9243796885      -10.6926923687       -8.4184805214
 C         8.5544191407      -11.8202627012       -6.5766929387
 C        13.6412397255       -9.3472413570       -1.6840752116
 C        12.1719099567       -7.2078706346       -1.4366715089
 C        14.4595899227       -7.2834302681       -7.6707545449
 C        14.9377005448       -4.7349180717       -7.6177616693
 H        13.4930706120       -5.1946332962      -10.2541548400
 H        12.6730640657       -3.7680378080       -9.5475483321
 H        11.8609514483       -5.0696261853      -10.2472459381
 H        14.8146241805       -4.4518423739       -4.8773809411
 H        15.4044803865       -6.1990038283       -5.2262889464
 H        13.3330529015       -5.5218281804       -2.9087345678
 H        15.0552139097       -5.6449415572       -2.6695479700
 H        11.8242099690      -10.7748070119       -2.8264878349
 H        12.6416454571      -10.4432124305       -4.3681322743
 H         9.5164733888      -10.1503010153       -3.9586147313
 H        10.2728265198      -11.5495312399       -4.4725260511
 H         7.8471411850       -8.8378614917       -8.6515708625
 H         9.1717160646       -7.9694688276       -8.0543909470
 H         6.3221108969       -7.6048767453       -7.2831648213
 H         7.2939170487       -6.3575608694       -8.0885055921
 H         5.9521649885       -2.6801742290       -4.5286665852
 H         4.7565706555       -4.0533465863       -3.9900693857
 H         4.4870624977       -2.2846282126       -6.4980506031
 H         3.3936157358       -2.3817450778       -5.1507166486
 H         0.4395033944       -3.2883413153       -6.1618895036
 H        -0.2406058908       -4.2399980333       -7.2847281137
 H        -1.2738060213       -2.3592888220       -8.5523903367
 H        -0.5696762809       -1.1368198611       -7.2769482315
 H        -6.1140045206       -1.4784501791       -7.7775930165
 H        -5.9959645506       -3.2421418850       -8.1453145809
 H        -6.5012780864       -2.9992973743      -10.2906048103
 H        -4.8367715709       -2.5332135046      -10.4596118699
 H        -9.2277789807       -0.1276132382      -13.3596697122
 H        -9.0138403928        0.4375776719      -11.6731787163
 H       -10.6394069176       -1.0657925246      -10.6657612709
 H       -10.5876104866       -2.1899683134      -12.0492854462
 H       -14.4444596426       -1.7992655059      -10.5886695541
 H       -15.5709404634       -2.3302004521      -11.9327486650
 H       -16.9559484557       -1.1773848936      -10.2726285476
 H       -16.7471231590       -0.1319299074      -11.6110028796
 H       -13.3594739491        2.2993138427       -8.7946535168
 H       -14.0948476173        3.6964345365       -8.4819393890
 H       -12.3540461595        3.1277733661      -10.8092676856
 H       -11.9337901594        4.0865169693       -9.2603334512
 H       -13.0882110501        6.7780571767      -14.5777534454
 H       -14.1852238013        6.7653364176      -13.1579675760
 H       -15.5782105476        6.0005679189      -15.1127208961
 H       -15.4538672250        4.9382866804      -13.7376180778
 H       -16.4899739137        5.0694602192      -19.6923802764
 H       -15.2563665601        6.3022426608      -19.3407494336
 H       -17.5958872460        7.0320105204      -17.8545372463
 H       -18.1108741041        6.7325931432      -19.5083254483
 H       -19.8829818843       11.0334854685      -19.7492407048
 H       -18.1668633753       11.0915172882      -20.2864693168
 H       -18.5615947249       10.4248567100      -18.8047478785
 H       -15.3917769975        9.4999575582      -21.5879979942
 H       -16.4450368536       10.6412046533      -20.7517368179
 H       -16.6991598559       10.1563418172      -22.5426437600
 H       -18.0669068517        6.7524717870      -21.2144374328
 H       -16.3925129053        6.8049528873      -21.7474600845
 H       -17.5045009596        7.5568747366      -22.7250445223
 H       -13.2458406015        5.5856087318      -18.2346879475
 H       -12.8587587289        5.4311736633      -16.4391759327
 H       -14.1356245346        6.5975839126      -16.9322892129
 H       -14.5946999724        2.4027403862      -17.7651718628
 H       -13.0713053761        3.2347181052      -17.7036881407
 H       -14.0913402294        3.7214273030      -18.9391174223
 H       -11.7018047747        7.4475207999      -10.5533139565
 H       -12.7363905246        7.7055667025      -11.8668554475
 H       -10.9573130882        7.6921534887      -12.0254494601
 H       -10.6523547107        3.9662684330      -11.9551483097
 H       -10.1361887818        5.3669325791      -10.8526184888
 H        -9.8501323945        5.3463035578      -12.5198532791
 H       -17.9503582952        3.0390021412       -9.9414072798
 H       -18.0144469654        1.3725983471      -10.3945596244
 H       -17.0642365806        2.5298450728      -11.4496551326
 H       -17.4290828095        1.7609046287       -7.9072896311
 H       -16.5583692108        3.3212790149       -8.0885254522
 H       -15.6382358988        2.0118268223       -7.4628464598
 H       -12.7729551630        0.1031011637      -14.5112087263
 H       -13.6101667315       -1.3919863354      -15.0268187386
 H       -11.7585611597       -1.2564392016      -14.7066875072
 H       -12.0996715998       -3.4058143574      -13.4316126302
 H       -13.8635465964       -3.2679323637      -13.2238135016
 H       -12.8111589232       -3.1854961879      -11.7932437483
 H        -6.8605732280        0.6869007099      -13.6224196277
 H        -5.6077899119        1.0151118113      -12.3479417183
 H        -7.2533774404        1.3518348124      -11.8814147884
 H        -5.8782529302       -1.4484018752      -14.0161079207
 H        -6.1425694588       -2.6910118881      -12.8936361875
 H        -4.7670476195       -1.6552478673      -12.7517749535
 H        -4.9204454441       -2.8945388753       -5.7182481729
 H        -5.4799759879       -1.2487490013       -5.6781627015
 H        -4.0698385930       -1.6800341829       -4.7540200958
 H        -4.0469189514        0.1237981087       -8.1151818322
 H        -2.3955850749        0.0764597117       -7.7603224723
 H        -3.7155441762        0.4129905669       -6.5300460506
 H         3.4433441892       -3.0866720519       -9.8874361928
 H         4.8120649996       -3.6768567801       -8.8227012954
 H         4.0465206230       -2.0748724152       -8.6499017445
 H         3.2645737655       -5.7220701838       -8.5941651634
 H         1.9732841226       -5.1558670019       -9.4105784444
 H         1.9124209665       -5.7322995925       -7.7009262864
 H         5.0986569649       -7.0708133272       -3.7786545888
 H         5.7975613753       -7.8310129235       -5.0310770249
 H         4.4758340936       -6.6031846711       -5.4003141842
 H         7.6644642776       -4.4976787597       -3.9093003478
 H         7.7747757766       -6.2192248432       -3.3565971296
 H         6.3452650356       -5.1291088782       -3.0413563636
 H        10.7777078051      -11.3016890863       -8.4496012674
 H        10.1230690486       -9.7430831512       -8.9487422834
 H         9.2714513039      -11.2559193556       -9.0104485224
 H         8.1359571310      -11.6825808606       -5.5646174362
 H         9.1574561241      -12.7093803001       -6.5187087235
 H         7.7106400082      -11.9851071336       -7.2280397915
 H        14.4471655570       -8.9749293887       -1.1071940403
 H        14.0606311498      -10.0385465043       -2.4048382980
 H        12.9395374784       -9.8125741090       -0.9581817089
 H        11.3220194008       -7.7027899833       -0.9404729125
 H        11.7207034227       -6.3812730613       -2.0083636746
 H        12.8077515332       -6.7666496480       -0.6154866992
 H        14.4780678518       -7.8316070989       -6.6971557953
 H        15.4218463485       -7.1947850018       -8.1946080819
 H        13.6870219705       -7.8940507521       -8.1406332339
 H        15.8007553377       -4.9245050528       -6.9410287307
 H        14.6231031321       -3.7205794571       -7.6928086013
 H        15.4181003581       -4.8154372000       -8.5875922121
 Na       10.8966227247       -7.2698556190       -6.1434604435
 Na      -13.7469514257        2.2647902559      -13.2247876580
