232

 C        12.8958210575       -4.4319820757       -9.1437465003
 C        12.9185247350       -5.4734701849       -8.0745617562
 O        12.1268154408       -6.4163145687       -8.1853778506
 C        14.1036898815       -5.5462930934       -7.0584480281
 C        13.6555558038       -5.6645969550       -5.5051738996
 O        12.5391037011       -5.5673237628       -5.1039500127
 C        14.9348424166       -5.6555656290       -4.5820963431
 C        14.3910274619       -6.3110278333       -3.2327486214
 C        13.9181466067       -7.7447597084       -3.4112916932
 O        14.2367800936       -8.4166839603       -4.3488169162
 C        12.7197274263       -8.3409412831       -2.3853569297
 C        11.6614507016       -8.7938606175       -3.4082497049
 O        10.6753249689       -8.0891711077       -3.6635109685
 C        11.8562864561      -10.0721066937       -4.1811910554
 C        10.5274539090      -10.5973773741       -4.8409955124
 C        10.3729595516      -10.0386652419       -6.2675580290
 O        11.2553256944       -9.3300981606       -6.7245413727
 C         9.1018609030      -10.3631561886       -7.0583159292
 C         8.0928710366       -9.1261865009       -6.9060189443
 O         7.2842098136       -9.2133444978       -6.0602365271
 C         8.3029318986       -7.9115176260       -7.8201623162
 C         7.5478837247       -6.6245637961       -7.4136493911
 C         7.8219580546       -6.2120620699       -5.9695887669
 O         8.8102398217       -6.4308125394       -5.2100149640
 C         6.6070441004       -5.4457592239       -5.2509258745
 C         6.0163281626       -4.3712733431       -6.2818316064
 O         6.3473986258       -4.2672120860       -7.4198614380
 C         5.0408247918       -3.4187499051       -5.6417958357
 C         3.9541157384       -2.8351722338       -6.6267179356
 C         3.2083291876       -4.1625786778       -7.0911035173
 O         3.2432985857       -5.1279687810       -6.3783609729
 C         2.6598308198       -4.1192538455       -8.5100379976
 C         1.5280807257       -2.9051614783       -8.2451301260
 O         1.7634137089       -1.7944323793       -8.6567387037
 C         0.3519222483       -3.3107557501       -7.3312164158
 C        -0.8457700425       -2.3034680688       -7.4533926344
 C        -2.1099606535       -2.6061762551       -6.5876610404
 O        -2.0979678791       -3.5646317287       -5.8396589850
 C        -3.2603070687       -1.6654033148       -6.8290112254
 C        -4.1848938805       -2.2962603859       -7.9968167147
 O        -3.6591158893       -2.9650054958       -8.7910597525
 C        -5.6858685261       -1.8980498350       -8.2454125403
 C        -6.1498193649       -2.1922592608       -9.6624002818
 C        -6.1046744463       -0.9332274185      -10.5262486699
 O        -5.5128057613        0.0770036941      -10.1991226349
 C        -6.7803814430       -0.9801527986      -12.0403510781
 C        -8.2376990492       -1.5524781873      -12.0482817514
 O        -8.5657286685       -2.7201537130      -12.2280616148
 C        -9.3762378502       -0.5121967064      -11.6374714857
 C       -10.6750703193       -1.2601305063      -11.6863877682
 C       -11.8890974526       -0.5760904464      -12.3779152198
 O       -11.9256244668        0.6030692452      -12.7186858855
 C       -13.0724335158       -1.4801003879      -12.8007067379
 C       -14.4096767076       -0.8620606716      -12.3691586541
 O       -14.6965485510        0.2523590900      -12.8003392834
 C       -15.3935511673       -1.4865508656      -11.3144573843
 C       -16.3671739628       -0.3306803780      -10.8449586092
 C       -15.7714136487        0.5777403254       -9.8214832539
 O       -14.9959640904        0.1188679655       -9.0023738944
 C       -16.2116102554        2.1158114464       -9.5258545613
 C       -15.0012851134        2.8793584574      -10.2836469844
 O       -15.0719160352        2.8765491148      -11.5142308709
 C       -13.9416461133        3.4948774947       -9.4603699160
 C       -12.6974566866        3.9189730555      -10.3522286317
 C       -12.7329128254        5.3635220680      -10.8482211206
 O       -13.4525045636        6.1541777328      -10.2973409330
 C       -11.6516507953        5.7134079862      -12.1057878384
 C       -12.4353721012        5.0144134744      -13.2591090493
 O       -12.1557312179        3.8218421577      -13.4530170585
 C       -13.4743954422        5.7940078021      -14.0549177191
 C       -14.7573810924        5.0117685094      -14.4739319522
 C       -14.4402204770        3.9530362007      -15.6178288342
 O       -13.9879509287        2.8541513055      -15.3413759224
 C       -14.5655328872        4.4733572830      -17.0103252371
 C       -16.0498819750        5.0596515598      -17.2381753874
 O       -16.8302439517        5.0503158181      -16.3716196009
 C       -16.3332052286        5.6291853029      -18.6119860673
 C       -17.4081853932        6.7376769548      -18.5924390332
 C       -16.7793775109        8.1447003233      -18.9766643802
 O       -15.7581798037        8.3455009982      -18.4073883264
 C       -17.3024668622        8.7912412953      -20.2923449766
 C       -18.8651877922        9.3172759362      -20.0384864740
 O       -19.7529214137        8.8066084154      -20.6635124800
 C       -19.1365363791       10.6201160580      -19.1426924177
 C       -16.4413561455       10.0118822540      -20.7613916641
 C       -17.3399773219        7.7330283830      -21.4814730032
 C       -13.5284491440        5.5805375691      -17.3319589464
 C       -14.3287918430        3.2767548886      -17.9871344330
 C       -11.4923290658        7.2529070546      -12.2817445635
 C       -10.2589156767        5.0701652563      -11.9630189308
 C       -17.6184448113        2.3511445519      -10.0725693980
 C       -16.1524763390        2.3495369250       -8.0481510858
 C       -13.1442929792       -1.5999422245      -14.3506398856
 C       -12.9064933871       -2.8837496887      -12.1995335834
 C        -6.6541682625        0.3880716110      -12.7036507372
 C        -5.9537864330       -2.0439362303      -12.7767890816
 C        -4.1483768214       -1.4964491678       -5.5670621844
 C        -2.9496958387       -0.2329151743       -7.3729237941
 C         3.7972307396       -3.5145369129       -9.4711752695
 C         2.1321329791       -5.4606576206       -9.0328586905
 C         5.4723629573       -6.3622750286       -4.6996387947
 C         7.2747682155       -4.6780659224       -3.9628478627
 C         9.4950924606      -10.5602230724       -8.5151732215
 C         8.2956657911      -11.6395237950       -6.5749488625
 C        13.4137132427       -9.4667980636       -1.6181519485
 C        12.1244132390       -7.2991766771       -1.3829273311
 C        14.7010893811       -6.9354687282       -7.2365364653
 C        15.1439850806       -4.4470692165       -7.3471532458
 H        13.6493144285       -4.6210341951       -9.9327220264
 H        13.1448503215       -3.4698622737       -8.7402947357
 H        11.9357918424       -4.4646003550       -9.5693582421
 H        15.0683954920       -4.5326722455       -4.6383227018
 H        15.7090994966       -6.3283710205       -5.0807512493
 H        13.5028126498       -5.7619069561       -2.9298863014
 H        15.1007909106       -6.3321764070       -2.4194336347
 H        12.1530171857      -10.8173729423       -3.4159272048
 H        12.5966680925       -9.9960617812       -4.9834558110
 H         9.6745684669      -10.3207396720       -4.2790152452
 H        10.5971276253      -11.7265733329       -4.8907028712
 H         7.8820503306       -8.2013446623       -8.8050148740
 H         9.3964638459       -7.6613988432       -7.7501586939
 H         6.4810987476       -6.8134105491       -7.4677222582
 H         7.7312222629       -5.8106788511       -8.1260791556
 H         5.5914786789       -2.5601332432       -5.1665403560
 H         4.4376954166       -3.9971428986       -4.9229530919
 H         4.5452813036       -2.3185542129       -7.3921216667
 H         3.2287380615       -2.1171410876       -6.1936246824
 H         0.7474839124       -3.3413863072       -6.2634016819
 H        -0.0612177129       -4.2999554445       -7.6527499120
 H        -1.0447423239       -2.2046398173       -8.4936587200
 H        -0.4491547546       -1.2737537793       -7.1783765641
 H        -5.7465049146       -0.8807901256       -8.1665240204
 H        -6.3466212272       -2.3052525191       -7.4792101227
 H        -7.2242701018       -2.6060880321       -9.6216046502
 H        -5.5240651147       -2.9045951214      -10.2147024084
 H        -9.4375429945        0.2830779486      -12.4268024237
 H        -9.1968277015       -0.1058396113      -10.6048484347
 H       -11.0694920511       -1.4899231603      -10.7426330817
 H       -10.5499447658       -2.0920518978      -12.2864398412
 H       -14.8194168701       -1.8283166494      -10.3906136223
 H       -15.9730741761       -2.3433907875      -11.6988171744
 H       -17.2552640033       -0.7875194912      -10.3950076751
 H       -16.7820226876        0.1535735770      -11.6542477399
 H       -13.7363155853        2.9182786185       -8.6290884806
 H       -14.5690797596        4.3199114945       -8.8802899243
 H       -12.5429887701        3.0556690650      -11.1161841637
 H       -11.8150431161        3.8700079517       -9.6125051566
 H       -13.1087299263        6.4944426510      -14.8438679946
 H       -13.9953054969        6.3626662995      -13.2514106956
 H       -15.5656696710        5.7229179352      -14.7604114215
 H       -15.0986222549        4.3867566907      -13.6004919038
 H       -16.5630422723        4.8061062595      -19.2821999725
 H       -15.3979102636        6.0364319989      -18.9139933024
 H       -17.7994220089        6.6533118355      -17.5905224323
 H       -18.3108014054        6.3805168813      -19.0967913275
 H       -19.9048176268       10.5494169333      -18.4523429265
 H       -19.5121393984       11.4105085163      -19.7912667753
 H       -18.1844464303       11.0173685536      -18.8620833399
 H       -15.3650409447        9.8868473704      -20.3971269359
 H       -16.8630431796       10.9513630243      -20.4849371778
 H       -16.3939118241       10.0310428495      -21.8531133794
 H       -17.6149651469        6.7203499307      -21.2647412332
 H       -16.2884907178        7.8119900744      -21.8433199392
 H       -18.1190759129        8.0782178211      -22.2096043313
 H       -13.3297965665        5.6035303236      -18.4156677097
 H       -12.6199844696        5.1658270440      -16.8209277980
 H       -13.9007381552        6.5386578560      -16.9177133620
 H       -14.5837027884        2.3018674946      -17.5873537896
 H       -13.3394678902        3.2105685844      -18.3148028343
 H       -15.0386533715        3.4711943179      -18.8115067895
 H       -10.6957773889        7.5249215524      -11.5335819405
 H       -12.3463561880        7.8311756212      -11.9642093414
 H       -11.1997985033        7.5725707884      -13.2557728304
 H       -10.2739298463        4.0013332501      -11.5945907965
 H        -9.8011988732        5.4564748909      -11.0518475638
 H        -9.6780973976        5.2763863537      -12.8385484702
 H       -18.1572001692        2.7709888111       -9.2260728899
 H       -18.0538592939        1.3282598721      -10.3407864497
 H       -17.5465543178        2.9545544509      -10.9056279266
 H       -17.0291053796        1.8499608330       -7.6183778860
 H       -16.1641316364        3.4885380377       -7.8555878389
 H       -15.3411414643        1.8886592895       -7.5490189226
 H       -12.9652880689       -0.6079609707      -14.7068140296
 H       -14.1237050777       -2.1446361007      -14.5604976899
 H       -12.4475851338       -2.2963677847      -14.7327042622
 H       -12.0263747205       -3.3141389398      -12.5657115109
 H       -13.6999061267       -3.6464304358      -12.2754412489
 H       -12.7491136890       -2.7393115664      -11.1029223053
 H        -7.0651753210        0.3694279989      -13.7068385946
 H        -5.6320777044        0.7231417145      -12.9685134553
 H        -7.1309999282        1.2306168283      -12.0743473004
 H        -6.2137478061       -2.0020000090      -13.8774257667
 H        -6.0336840026       -3.0433539767      -12.5018537137
 H        -4.9153395968       -1.8770525072      -12.7232138781
 H        -4.8131459495       -2.3792909815       -5.2962229649
 H        -4.7056491379       -0.5119359226       -5.5855407816
 H        -3.4634100080       -1.4821779892       -4.7340862784
 H        -3.7594961972        0.1332664729       -8.0635538899
 H        -1.9903523480       -0.2153649386       -7.7917450090
 H        -2.7356541992        0.3398813783       -6.5562627314
 H         3.7467713728       -4.0650280815      -10.4194851906
 H         4.7840785711       -3.7601795774       -9.0751189501
 H         3.6474271478       -2.4457721828       -9.6020286221
 H         2.9403876540       -6.1964478514       -9.2567730984
 H         1.6062517840       -5.2067500125       -9.9271440099
 H         1.3371881864       -5.8738837980       -8.5364504574
 H         5.0731522058       -5.7789066796       -3.8698717112
 H         5.9070294056       -7.3047532988       -4.2620199270
 H         4.7895098502       -6.7721250239       -5.3642985445
 H         7.9213147785       -3.8999205875       -4.3726306070
 H         8.0012190177       -5.3131413303       -3.3348465685
 H         6.4447633196       -4.2944707749       -3.4547821165
 H         9.2475975360      -11.5499966123       -8.7979433997
 H        10.5459064440      -10.5911926369       -8.6301628472
 H         9.1601827437       -9.8927851812       -9.3214920813
 H         7.8692792076      -11.5427192913       -5.5908988901
 H         8.9697387306      -12.4859837591       -6.5307810550
 H         7.5082041426      -11.9460928687       -7.2705561154
 H        14.2624297170       -8.9911677565       -1.1711357768
 H        13.7177208761      -10.1983269652       -2.3163416840
 H        12.7978142849       -9.9606238516       -0.8801920981
 H        11.0764185536       -7.5216820457       -1.1279599992
 H        11.9823056782       -6.2368371116       -1.7420897171
 H        12.6713744363       -7.2844247797       -0.4601501111
 H        14.7696750064       -7.0052018764       -8.3415327845
 H        14.1695958988       -7.8070217279       -6.7373948264
 H        15.7244410812       -6.9515962194       -6.7661460283
 H        16.0598544898       -4.5260277494       -6.8426231833
 H        14.9475639548       -3.4038691078       -7.0048166098
 H        15.4174586054       -4.4325302542       -8.4326667009
 Na       11.1379644802       -7.2670808603       -5.8210768108
 Na      -13.7412150842        2.1457995919      -13.2398025422
