232

 C        13.4829775261       -4.0493522799       -8.6852174309
 C        13.2005475474       -4.7913752381       -7.4531675521
 O        12.0888748511       -5.2296425929       -7.2108255149
 C        14.4418278787       -5.3096876268       -6.6532215416
 C        14.0373625497       -5.4962463140       -5.2109196015
 O        12.9007078193       -5.5168059413       -4.8219762627
 C        15.0975684669       -5.7832653413       -4.0420438639
 C        14.3647735501       -6.6610248685       -2.9836227399
 C        13.6456966961       -7.8860391151       -3.5513672470
 O        13.9308124015       -8.2711485671       -4.6527987277
 C        12.6554408906       -8.6283036212       -2.5541035992
 C        11.5585201629       -9.1828903272       -3.4276170701
 O        10.5503553797       -8.5126798497       -3.5985398762
 C        11.6258669348      -10.6052763031       -4.0942141006
 C        10.3420025669      -10.9041588887       -4.8630358541
 C        10.2503732652      -10.1150429094       -6.2150056271
 O        11.0632489098       -9.2546778626       -6.5642031273
 C         8.9570622573      -10.3243558696       -7.1590498472
 C         7.9996458334       -9.0814640374       -6.9871248316
 O         7.0122652284       -9.1458997985       -6.3583593182
 C         8.3318433785       -7.7389002237       -7.7771707546
 C         7.2718565505       -6.6552251822       -7.4176596735
 C         7.8149124206       -5.7761466762       -6.2544778797
 O         9.0638069651       -5.6470516053       -6.1986811947
 C         6.7908953838       -4.9858900015       -5.4398126183
 C         6.1039929867       -3.9405959397       -6.3560032384
 O         6.7051166988       -3.5177504850       -7.3088325340
 C         4.7314845838       -3.5329800221       -5.9572823916
 C         3.8906235047       -3.0894165472       -7.2340069120
 C         3.3360782685       -4.3453679851       -7.8528530170
 O         3.8479119142       -5.3647991524       -7.4966375867
 C         2.1782612929       -4.2824804797       -8.9178847439
 C         1.2248486495       -3.0327668194       -8.7353483398
 O         1.5931214280       -1.9092003438       -8.5654961830
 C        -0.2452968754       -3.3759830163       -8.8816467608
 C        -1.1668493603       -2.1927715228       -8.5570415119
 C        -1.9549773631       -2.3659619898       -7.2613738606
 O        -1.5302058717       -3.0619565021       -6.3185916215
 C        -3.3470902878       -1.6247148866       -7.1040853747
 C        -4.4193921678       -2.0968403925       -8.2599393834
 O        -3.9418598721       -2.5795012673       -9.2628328514
 C        -5.9475279982       -1.7315402033       -8.1138888026
 C        -6.6070960502       -2.0196506628       -9.4692332310
 C        -6.3800244930       -0.8530247904      -10.4149017845
 O        -6.0308241089        0.2311333611      -10.0960057239
 C        -6.9044970810       -1.2337670535      -11.9447224665
 C        -8.2824365749       -1.8738077616      -11.7315084379
 O        -8.4753982555       -3.0618611338      -11.6766502994
 C        -9.4944554198       -0.9037123017      -11.5325368636
 C       -10.7172261938       -1.7414460018      -11.7402600626
 C       -11.9675841547       -0.9143862769      -12.2513380611
 O       -11.8862482816        0.2574785305      -12.5814008093
 C       -13.2961812622       -1.7544342362      -12.4228683415
 C       -14.5125699105       -0.8914362900      -11.9958424261
 O       -14.7869190366        0.1435292997      -12.6798105155
 C       -15.5024210642       -1.2995768570      -10.7781461030
 C       -16.4851166373       -0.0982691797      -10.4140220287
 C       -15.7933129331        0.7827816506       -9.4579452912
 O       -14.9201327945        0.3631415089       -8.7347603308
 C       -15.9774782192        2.4356875049       -9.5297763920
 C       -14.6422491011        2.8564351850      -10.2619259888
 O       -14.5458072528        2.6016818159      -11.4420522528
 C       -13.4940699971        3.5141993273       -9.4657551395
 C       -12.2675721585        4.0327436780      -10.1012309091
 C       -12.5913550075        5.2919033696      -10.9021621163
 O       -13.5666415941        6.0053919210      -10.7086033005
 C       -11.4934280648        5.5868963242      -12.0607726104
 C       -12.0895116949        4.7778900013      -13.3045259441
 O       -12.0081287046        3.5873473474      -13.2996751965
 C       -13.0383660396        5.5891090757      -14.1108566330
 C       -14.3939675412        4.7542314801      -14.5470070217
 C       -14.3437889781        3.9908914708      -15.7970316611
 O       -13.9331730949        2.8194169801      -15.8649373446
 C       -14.7836655068        4.6488630719      -17.0751586470
 C       -16.3088558117        5.2614170967      -17.1832693490
 O       -16.8756637646        5.5541485797      -16.1320003324
 C       -16.8681994104        5.2575468442      -18.5311694578
 C       -17.7079046266        6.5730672231      -18.8467124277
 C       -16.7069518350        7.7370818780      -18.8729289103
 O       -15.6684752016        7.6565501464      -18.2932758578
 C       -17.1359033787        8.8341199449      -19.7235627972
 C       -18.7737014079        9.1246872001      -19.2533330550
 O       -19.5837399638        8.6229191417      -20.0050505847
 C       -19.0122936954        9.9408202619      -18.0400602227
 C       -16.2423378005       10.1378095968      -19.6665216769
 C       -17.1631717064        8.4241241177      -21.2348617550
 C       -13.8496166011        5.8606306060      -17.4706444646
 C       -14.7552243352        3.5018246400      -18.1173311958
 C       -11.4335429235        7.1045308832      -12.3163796501
 C       -10.0980406163        5.1098498027      -11.7975532605
 C       -17.1151580447        2.9716074685      -10.4573271744
 C       -16.0147913892        2.8993169446       -8.0487387609
 C       -13.3113666362       -2.1705238682      -13.9628708765
 C       -13.2548401359       -3.0238765889      -11.6185426155
 C        -7.0054981387       -0.0131958368      -12.9015597326
 C        -5.9054567891       -2.1393961140      -12.5732298145
 C        -3.9636756802       -2.0634468099       -5.7478993031
 C        -3.1847220447       -0.0575850304       -7.3519149521
 C         2.9773960765       -4.0659597789      -10.2326667858
 C         1.4678017849       -5.6136104108       -8.8678351943
 C         6.0064704100       -6.1400437280       -4.7289487654
 C         7.4395014574       -3.8935801364       -4.3439821980
 C         9.4160356425      -10.5150255502       -8.6217936696
 C         8.1156528250      -11.5144312204       -6.7684144983
 C        13.4786377338       -9.8256239897       -1.8422909405
 C        12.1370953797       -7.6803736107       -1.4319177878
 C        14.7285404160       -6.8117508908       -7.1814371934
 C        15.6638014697       -4.3045008827       -6.7727971595
 H        13.9076905399       -4.7389004790       -9.5103970128
 H        14.3180755529       -3.3343847700       -8.5660959084
 H        12.5290488081       -3.6041807091       -8.9707357179
 H        15.3105866480       -4.7839435714       -3.8320804015
 H        15.9446645290       -6.2887203082       -4.4564075886
 H        13.6044323926       -5.9530784959       -2.6623212680
 H        14.9841544152       -6.9116210572       -2.0592647991
 H        11.7399994246      -11.3490666291       -3.2731015403
 H        12.4422538982      -10.6768181936       -4.7971371719
 H         9.5023544622      -10.4759629636       -4.3811604137
 H        10.2263492841      -12.0370510897       -4.9991684352
 H         8.4286040457       -7.9222631941       -8.8120598635
 H         9.2929515914       -7.3585821701       -7.3292820198
 H         6.3382915256       -7.1319233311       -7.1325155586
 H         6.7962824966       -6.0660257749       -8.2713834711
 H         4.8354832447       -2.7041160728       -5.2759845816
 H         4.1970293719       -4.2063980964       -5.3127405541
 H         4.7619828404       -2.6355331841       -7.7732625955
 H         3.1659681535       -2.2991947677       -7.2149362249
 H        -0.5723664172       -4.2488208650       -8.3326712269
 H        -0.4693621678       -3.4751165331       -9.9104016665
 H        -1.7839522596       -1.9811065743       -9.4364331053
 H        -0.6121618446       -1.2521458680       -8.5626213192
 H        -6.1597191695       -0.6865799946       -7.8305424462
 H        -6.3463166616       -2.4041262891       -7.2226763309
 H        -7.6448646133       -2.1754303970       -9.3580239817
 H        -6.1868668505       -2.9323567869       -9.9021541009
 H        -9.4476007207       -0.1829402185      -12.3138772236
 H        -9.2748195427       -0.4093821909      -10.6143777542
 H       -11.0588770774       -2.1048378580      -10.7406824534
 H       -10.6292637962       -2.6017139522      -12.4892622627
 H       -14.9463513396       -1.5616053980       -9.8699308030
 H       -16.0337669913       -2.2149122067      -10.9343579638
 H       -17.3978372968       -0.5865042831       -9.9422970973
 H       -16.8237846675        0.3759139540      -11.3533376193
 H       -13.2679706890        2.9129940472       -8.6551315810
 H       -13.9953867399        4.4227239142       -9.0857331371
 H       -11.7964556599        3.3097224830      -10.6737582892
 H       -11.5482407677        4.1801228052       -9.3555710745
 H       -12.5818297285        6.0663972987      -14.9672090980
 H       -13.3346891133        6.4621112685      -13.5690959561
 H       -15.3633569410        5.2165753448      -14.5342221407
 H       -14.4948436214        3.9246881840      -13.8457402424
 H       -17.5617107339        4.4391300687      -18.7355149083
 H       -16.0272834702        5.1129723029      -19.2280149099
 H       -18.2977319781        6.5719438556      -17.9165719877
 H       -18.3180225991        6.3290557172      -19.6923648477
 H       -20.0173987262       10.2424980243      -17.7856716192
 H       -18.4814510533       10.9027553692      -18.2056769023
 H       -18.5052998811        9.3775420432      -17.2175797318
 H       -16.9019495005       11.0111862526      -19.9959656992
 H       -15.3639305358       10.2143627037      -20.2556802729
 H       -15.8178220872       10.3458398365      -18.6788379275
 H       -18.1874186721        8.1775401622      -21.5034012246
 H       -16.5752424705        7.4975425196      -21.3847349501
 H       -16.7364790891        9.2730285583      -21.8317243101
 H       -13.9832692396        6.1373658836      -18.4962372204
 H       -12.8079089623        5.5029105270      -17.2922523353
 H       -14.1128185493        6.6922415853      -16.8210463521
 H       -15.6013320477        2.7963166784      -18.0332997111
 H       -13.8190874111        3.0095117284      -18.0808429699
 H       -14.7681634818        3.8871950646      -19.1760450350
 H       -10.4193778629        7.4312147445      -11.9644719053
 H       -12.2321293023        7.6041448492      -11.7848797258
 H       -11.5020748926        7.3478381050      -13.3574528993
 H       -10.0148205384        3.9912504165      -11.6241928068
 H        -9.6904656031        5.6701175106      -10.9583656619
 H        -9.4557542127        5.2701115416      -12.6236244755
 H       -17.5950559473        3.9342028835      -10.0662714462
 H       -17.8435367917        2.1468539748      -10.5105438592
 H       -16.7002716327        3.2236617732      -11.3953462026
 H       -16.8945201427        2.6195540010       -7.5160581491
 H       -16.2282899405        3.9902074180       -8.1064315868
 H       -15.1501424993        2.6725142329       -7.5477082516
 H       -12.9495288386       -1.4709981242      -14.6659052006
 H       -14.3718018088       -2.3629303565      -14.3178264082
 H       -12.7444474044       -3.0435204334      -13.8738176969
 H       -12.4965616346       -3.6865723755      -11.8799196372
 H       -14.1984705592       -3.6138049021      -11.7374673851
 H       -13.0994868088       -2.8658416283      -10.5372731465
 H        -7.5656078248       -0.3049849961      -13.7081226579
 H        -6.1591067896        0.4873504020      -13.2370280098
 H        -7.6457918160        0.7977107896      -12.5790138560
 H        -6.0272936651       -2.3732756706      -13.7174291181
 H        -5.8535599078       -3.1503334718      -12.1405990668
 H        -4.8636903729       -1.8048114121      -12.5207802192
 H        -4.5414773771       -3.0454363117       -5.7254498586
 H        -4.5781778808       -1.3027864058       -5.2057500979
 H        -3.1300833635       -2.1589015458       -5.0953355971
 H        -3.6632512273        0.5549166428       -6.4684904120
 H        -3.7052011621        0.1266019549       -8.3120380967
 H        -2.1793156159        0.1582309059       -7.3155708284
 H         2.2599373282       -4.2749639846      -10.9706557501
 H         3.8158543810       -4.6999883376      -10.2364805194
 H         3.2938355921       -3.0437285826      -10.2573264516
 H         2.2054426419       -6.5226013493       -8.8472905263
 H         0.8666732462       -5.8115575126       -9.8108316269
 H         0.8304966140       -5.7273040664       -7.9936629054
 H         5.3047739820       -5.7497000714       -4.0139494894
 H         6.8273533010       -6.7526094887       -4.2646394176
 H         5.4331575529       -6.7822801093       -5.3495841353
 H         8.1235066326       -3.4450411244       -5.0492107655
 H         7.9430179722       -4.4833731720       -3.5163883977
 H         6.8495005011       -3.1520491676       -3.9056756295
 H         8.6400717397      -10.3734198777       -9.4216480517
 H         9.8602991785      -11.5037708523       -8.6470323171
 H        10.2951383118       -9.7924702562       -8.8283246425
 H         7.8416366062      -11.5537661986       -5.7228435964
 H         8.6880114704      -12.4223861782       -7.0148691559
 H         7.1854670501      -11.4916154813       -7.3631205171
 H        14.3054270635       -9.4413555403       -1.2511925220
 H        13.8675935892      -10.4915434340       -2.5650437187
 H        12.7430279520      -10.2732604527       -1.1872520833
 H        11.3145439762       -8.1379799212       -0.9092649956
 H        11.9253006140       -6.6367423360       -1.7135413452
 H        12.8994662520       -7.5333631814       -0.7194634042
 H        15.7642673602       -7.1242652589       -7.2909094973
 H        14.2037265279       -6.9395835693       -8.1393810415
 H        14.3441787333       -7.5387696932       -6.4956095866
 H        16.5133002723       -4.6760293498       -6.2850840197
 H        15.5698044278       -3.2276796357       -6.4680024156
 H        16.0786014634       -4.3456762691       -7.8062690548
 Na       11.3400613354       -7.0079017968       -5.8016506040
 Na      -13.3724377452        1.7514553245      -13.7448242317
