232

 C        13.5966158640       -3.6312735200       -8.4980892741
 C        13.3170438635       -4.7535644473       -7.5325151834
 O        12.1664241278       -5.1222068034       -7.4285697149
 C        14.4553470338       -5.3775541388       -6.6470557201
 C        13.9323109999       -5.5441942668       -5.0802444818
 O        12.8038150584       -5.3456982362       -4.6610191772
 C        15.0773340023       -5.9661865541       -4.0349326920
 C        14.5235452349       -6.8012129865       -2.8851878741
 C        13.6864729600       -7.9736846913       -3.3943317553
 O        13.8406915967       -8.3218297606       -4.5656875017
 C        12.6756762850       -8.8876846977       -2.4917454747
 C        11.4582889531       -9.2989418684       -3.4350769337
 O        10.5982516447       -8.4708401456       -3.5534986771
 C        11.4785890116      -10.6269677462       -4.0732144177
 C        10.2536406659      -10.9431087086       -4.9082695525
 C        10.0951396345       -9.9539286672       -6.1459343494
 O        10.8452026532       -9.0345487290       -6.4064771328
 C         8.9727288427      -10.1957361996       -7.1823726390
 C         7.9902232312       -8.9884915597       -7.0916205818
 O         7.0905807012       -9.0958995739       -6.2058569274
 C         8.2781796043       -7.7799477595       -7.9224856819
 C         7.4794762494       -6.6196095250       -7.4541533198
 C         8.0490012194       -5.7727934396       -6.3008991973
 O         9.1647162478       -5.7909102982       -5.8970893601
 C         6.9619509899       -4.7486463796       -5.4633628502
 C         6.0841537247       -3.8090975279       -6.4096062139
 O         6.6217762543       -3.3017183516       -7.3797229962
 C         4.6707135040       -3.3708425053       -6.0442806913
 C         3.7194799835       -3.1782223417       -7.2248653769
 C         3.2338513364       -4.3436311806       -8.0518760332
 O         3.8802986059       -5.3692110787       -7.8967268882
 C         2.0213069949       -4.3750584731       -9.1246834058
 C         1.0267787884       -3.2139312218       -8.7675186022
 O         1.5114861442       -2.0636158259       -8.5330799450
 C        -0.4001538675       -3.3839252661       -9.1361427515
 C        -1.2242960507       -2.0556735085       -8.8243653610
 C        -1.9494281759       -2.2478820620       -7.5465552015
 O        -1.4821730179       -3.0051938202       -6.7592250704
 C        -3.3160470766       -1.6328948577       -7.3035755896
 C        -4.3058704379       -2.0012145599       -8.4766898621
 O        -3.9347289783       -2.5740904540       -9.4603163596
 C        -5.7726038548       -1.7910470559       -8.0568392770
 C        -6.7056642669       -1.8791723265       -9.2491231630
 C        -6.5089540423       -0.8471260547      -10.3427192163
 O        -6.2393553080        0.3172806408      -10.0958952993
 C        -6.9309005818       -1.2664324621      -11.8574937088
 C        -8.2145879270       -1.9742419035      -11.7832305872
 O        -8.3345375911       -3.1822320509      -11.5607582821
 C        -9.5142576632       -1.0985690395      -11.7443074117
 C       -10.7690276284       -1.8821618127      -11.6715205107
 C       -12.0338511917       -1.0849752476      -12.1890337428
 O       -11.9342835992        0.0651616093      -12.5660529592
 C       -13.4072826722       -1.8013976389      -12.2798297454
 C       -14.6235928924       -0.8290186457      -12.0248208392
 O       -14.7633679808        0.1890162944      -12.6509324028
 C       -15.4782846561       -1.2536515434      -10.8844887466
 C       -16.3805964330       -0.0598245192      -10.4817835938
 C       -15.6526391838        0.9795018652       -9.5356129212
 O       -15.0004318958        0.5023242055       -8.6024175613
 C       -15.8643246369        2.5276160304       -9.6717894366
 C       -14.4204609705        2.9362679889      -10.1997303004
 O       -14.1527155907        2.8314738660      -11.3840040144
 C       -13.2956744399        3.3216646714       -9.2697219986
 C       -12.0859371718        3.9421491336      -10.0973743375
 C       -12.4140359079        5.2835610115      -10.8913357134
 O       -13.4016159561        5.9841773431      -10.9418557915
 C       -11.4468108990        5.5877617096      -12.0878325637
 C       -12.2577710825        4.7842451458      -13.1587813478
 O       -12.0884804177        3.5627328130      -13.0523030021
 C       -13.1718338108        5.4528548473      -14.2464469840
 C       -14.5363995810        4.9352978405      -14.5314251989
 C       -14.5137224601        3.9223725229      -15.8021023334
 O       -13.9974044914        2.8855519997      -15.4780530875
 C       -14.7619946180        4.4063926106      -17.2327094507
 C       -16.1316715076        5.1192680144      -17.2761273366
 O       -16.6421607978        5.6580435163      -16.3207971080
 C       -17.1590536943        5.0410648105      -18.5864978418
 C       -17.8260672398        6.4429601463      -18.7758323705
 C       -16.8772249523        7.6507837244      -18.8397295371
 O       -15.8188729267        7.6704639373      -18.2127515394
 C       -17.2122382669        8.9889248884      -19.6265231726
 C       -18.7138408478        9.1970018723      -19.1413769989
 O       -19.5996914048        8.6458889905      -19.7323120238
 C       -18.8780558040        9.8913487405      -17.7138176046
 C       -16.2601915832       10.1280526007      -19.2102418028
 C       -17.1480349642        8.5892002226      -21.1547266037
 C       -13.7258083274        5.5316496240      -17.4789541263
 C       -14.4120658209        3.3899886648      -18.3020507355
 C       -11.3188256319        7.0603328380      -12.4058580674
 C       -10.0960084845        4.9320993227      -11.9636852464
 C       -16.9875135762        3.0123601584      -10.5999938635
 C       -16.1039261757        3.0023043505       -8.2251410269
 C       -13.5434284729       -2.1562729922      -13.8426647745
 C       -13.4630575473       -3.0981105480      -11.4624477096
 C        -6.9461628220        0.0017225668      -12.6600420001
 C        -5.8961029284       -2.3238814125      -12.3797235397
 C        -3.8661812526       -2.0535100391       -5.9098926094
 C        -3.2486641911       -0.0562462669       -7.2515523987
 C         2.4880105910       -4.1150039238      -10.5560789742
 C         1.4078139005       -5.7666599149       -8.9292038817
 C         5.9009732792       -5.7536356734       -4.7162382211
 C         7.8800316229       -4.0604705621       -4.4558344193
 C         9.5160190580      -10.4072627063       -8.6514013354
 C         8.1850206777      -11.5127245720       -6.8097900500
 C        13.4748630388       -9.9834697376       -1.8294826504
 C        12.0855254338       -7.9124475362       -1.4251144624
 C        14.8733347516       -6.6739989617       -7.3147849848
 C        15.7166775014       -4.4315835320       -6.5026605880
 H        14.1666122291       -3.9599131434       -9.3184664276
 H        14.2685023283       -2.9132523037       -8.0261793929
 H        12.6507922765       -3.1257087945       -8.7822686975
 H        15.3740834209       -4.8915551927       -3.6725699011
 H        16.0428698637       -6.3742631692       -4.4981588812
 H        14.0914966102       -6.0896881134       -2.1837041084
 H        15.3706351502       -7.2094328160       -2.3940527377
 H        11.5996369707      -11.3169871971       -3.2418984537
 H        12.4017963203      -10.7182892719       -4.7037376885
 H         9.2895619294      -10.9000915060       -4.3227979312
 H        10.3885903908      -11.8774191345       -5.3372739808
 H         7.9169653943       -8.0337326788       -8.9695619362
 H         9.3332607239       -7.6630793113       -7.9599788697
 H         6.4468941106       -6.9134913260       -7.3493342359
 H         7.2941212211       -5.9695741598       -8.2595518990
 H         4.6850411301       -2.4259784117       -5.4543538083
 H         4.0756467086       -3.9290888910       -5.2979938845
 H         4.2197670659       -2.4877807487       -7.8757578033
 H         2.8482803938       -2.5814379488       -6.9171883053
 H        -0.9089306851       -4.2002631691       -8.5630840340
 H        -0.4488714582       -3.6427536581      -10.2410306129
 H        -1.9009465034       -1.7116686053       -9.6407965784
 H        -0.5141111674       -1.1715380553       -8.8579524843
 H        -5.9837525028       -0.7917740501       -7.6282431147
 H        -6.0244782152       -2.4881368171       -7.3217071307
 H        -7.7483133981       -1.8179970217       -8.8579309996
 H        -6.6387026901       -2.8481231426       -9.7593380211
 H        -9.5521784156       -0.3204110461      -12.5667033653
 H        -9.2090946557       -0.5260507153      -10.8225420203
 H       -11.0570740359       -2.0957803115      -10.6392511530
 H       -10.8466157169       -2.7714297528      -12.2585178345
 H       -14.8861514656       -1.5673350056      -10.0353386986
 H       -15.9845701122       -2.2197721684      -11.0910863185
 H       -17.2861310815       -0.4227707767      -10.0876402506
 H       -16.5393689250        0.4095951963      -11.4554345449
 H       -12.9390492046        2.2557660948       -8.8693847010
 H       -13.6730243006        4.0182672465       -8.5066604277
 H       -11.6174929885        3.1187064776      -10.7460552470
 H       -11.1930662624        4.1352968497       -9.3996035082
 H       -12.6147259610        5.6439282693      -15.1779844457
 H       -13.4345580562        6.5065718402      -14.0184619955
 H       -15.1683939119        5.8311714043      -14.7037955290
 H       -15.0020589423        4.5152936995      -13.6415800088
 H       -17.9090692820        4.2862668409      -18.2762093843
 H       -16.8023964571        4.6757623954      -19.5470311530
 H       -18.4755530263        6.5278570552      -17.8973741368
 H       -18.3499995615        6.3836984001      -19.7506834588
 H       -19.9895569551        9.8581320540      -17.4932569031
 H       -18.6209644387       10.9498771346      -17.6341333660
 H       -18.4584954554        9.2352854789      -16.9201205798
 H       -15.8831494374       10.6146619618      -20.0655967498
 H       -15.2995963533        9.8045789920      -18.7111451954
 H       -16.6836746110       10.8852131341      -18.5748008347
 H       -18.0971730273        8.1495252156      -21.3790215903
 H       -16.3835210809        7.9886988088      -21.5366116813
 H       -16.9926798396        9.5579308917      -21.6027677309
 H       -13.9637994080        5.9551374999      -18.4767881854
 H       -12.7280298322        5.1576675612      -17.4119312338
 H       -13.8610194517        6.2760320778      -16.6742123538
 H       -14.9371720071        2.4758596884      -18.0319143574
 H       -13.2996899449        3.1712972745      -18.3866140995
 H       -14.7016215713        3.6750030439      -19.3071572393
 H       -10.5941663866        7.4237221492      -11.7435169396
 H       -12.3010216080        7.5590783628      -12.2540709531
 H       -10.8816909614        7.1630866624      -13.4314930121
 H       -10.1439014021        3.9012183314      -12.0755170155
 H        -9.5615900896        5.3286913658      -11.0978382976
 H        -9.3784910449        5.2388923638      -12.7695740757
 H       -17.6731750889        3.5054340529      -10.0207787032
 H       -17.6555669616        2.2270952677      -11.0966393262
 H       -16.5676738394        3.7647015085      -11.2926206732
 H       -17.1561551961        2.8373376040       -7.9839349198
 H       -15.9509341277        4.0461127181       -8.0592473246
 H       -15.4676424773        2.3576649099       -7.5357015951
 H       -13.7902032849       -1.2196346654      -14.3966760055
 H       -14.4237750877       -2.7411819766      -13.9447335540
 H       -12.5891705463       -2.6166175322      -14.2278689478
 H       -12.6566745443       -3.8005686392      -11.8375782940
 H       -14.3748828620       -3.6172536346      -11.6368476120
 H       -13.2488430290       -3.0845617053      -10.4174631352
 H        -7.5432740688        0.0900213377      -13.6005040986
 H        -5.8890816475        0.3776154161      -12.8679962808
 H        -7.3645814263        0.8453307763      -12.1396547043
 H        -6.0986212552       -2.5792101975      -13.3443384505
 H        -5.8323977885       -3.2509303765      -11.8815088071
 H        -4.8946101814       -1.9641567417      -12.4352064293
 H        -4.0277274878       -3.0631562834       -5.9102991137
 H        -4.7700754780       -1.6552883056       -5.6104833374
 H        -3.1340806576       -1.7972625371       -5.1344095604
 H        -3.3695453846        0.3104265024       -6.2974446382
 H        -3.8856647725        0.3731496427       -7.9816794830
 H        -2.1247309270        0.1368001934       -7.3066481166
 H         1.6718108056       -4.3762552808      -11.2511799239
 H         3.3879399503       -4.7649678291      -10.6927567526
 H         2.7221582556       -3.0316422173      -10.5690040854
 H         2.0031434032       -6.5735767260       -9.1815659187
 H         0.5599605450       -5.8773648286       -9.5770195001
 H         1.1905320270       -5.9352643722       -7.8489657382
 H         5.4706721126       -5.4173629061       -3.7465960406
 H         6.3964835899       -6.7014079511       -4.5394170226
 H         5.0302964203       -5.8758145013       -5.4407165968
 H         8.3891418087       -3.2506696526       -4.9802164478
 H         8.5106119065       -4.7559918398       -4.0153341043
 H         7.2212728057       -3.5833388169       -3.6821968414
 H         8.8534391565      -11.1312241852       -9.1265917751
 H        10.5443020603      -10.7838552992       -8.6003376656
 H         9.5021291049       -9.5482289938       -9.2458520557
 H         7.8686683740      -11.4176204074       -5.7682197462
 H         8.8883393609      -12.3447883069       -6.8306459650
 H         7.3320328292      -11.7178528813       -7.4386343109
 H        14.1878702490       -9.4718296971       -1.1443910917
 H        14.0811226149      -10.4782655464       -2.6423714331
 H        12.8444265685      -10.6637562498       -1.2504071262
 H        11.5664798339       -8.4674929869       -0.6343971306
 H        11.3861477013       -7.2223035462       -1.8442022204
 H        12.8439247745       -7.2524728983       -0.9404340456
 H        15.3361260063       -6.4722872758       -8.2950235883
 H        14.0743464239       -7.3360810551       -7.6274241902
 H        15.5791025305       -7.2492178754       -6.7119197605
 H        16.5463019308       -4.9427962396       -5.8898475936
 H        15.4164553627       -3.4639311534       -6.1330276341
 H        16.2676185077       -4.2176971654       -7.3831731265
 Na       11.3401975298       -6.7694497141       -5.9770247495
 Na      -13.5063325056        1.7817077325      -13.4771006905
