232

 C        13.7189913890       -3.3171302024       -8.1205106591
 C        13.4424741133       -4.6798405646       -7.4397007197
 O        12.3564207309       -5.2202830637       -7.6588084329
 C        14.5092059699       -5.1746965420       -6.5087258030
 C        13.9887004102       -5.6092020638       -5.0054517582
 O        12.8214547319       -5.5268520234       -4.7519034594
 C        15.1396191732       -6.1334328741       -4.1223471940
 C        14.4589807354       -6.9437558446       -2.9456986504
 C        13.5577688320       -8.0754835278       -3.3658187300
 O        13.5719564431       -8.4432495243       -4.5182797640
 C        12.5822884416       -8.8459477866       -2.4459079614
 C        11.4965533758       -9.0970059511       -3.4532354903
 O        10.6182101128       -8.2835733281       -3.7416701902
 C        11.5538589861      -10.5213311513       -4.1239937513
 C        10.3123977951      -10.8472033030       -4.9537288604
 C        10.0439365546       -9.8781970389       -6.1504565599
 O        10.7241069267       -8.8802041564       -6.3272123276
 C         8.9393238516      -10.2168405297       -7.1912509248
 C         7.9214668514       -8.8612197975       -6.9822106517
 O         7.1246313745       -8.9153091522       -6.1214510640
 C         8.1846392493       -7.6713298353       -7.9839259397
 C         7.5085541397       -6.3148155660       -7.5736822754
 C         7.9461269048       -5.6317309676       -6.3056144059
 O         8.9911286770       -6.0170230586       -5.7327571350
 C         6.9316001714       -4.7363742698       -5.5609847527
 C         6.2209063301       -3.8228889455       -6.5590737853
 O         6.7819040662       -3.3325439881       -7.5418206101
 C         4.7991237998       -3.4782229728       -6.1942813206
 C         3.6829636108       -3.2587328247       -7.3121353450
 C         3.3731483381       -4.4077999176       -8.1728840359
 O         4.0737632271       -5.4067159929       -8.2411785551
 C         2.0465733006       -4.3678993406       -9.0983401333
 C         1.0091805514       -3.1909783140       -8.9370047205
 O         1.3736028982       -2.1845257784       -8.4446657023
 C        -0.4056018361       -3.2470540989       -9.5581286925
 C        -1.2694560297       -2.0881812072       -9.0575588234
 C        -1.9088855973       -2.2422426850       -7.6727455036
 O        -1.3857427392       -3.0239143986       -6.8639406046
 C        -3.3451015790       -1.5853767731       -7.3853321690
 C        -4.4169224732       -1.9054841978       -8.3944618665
 O        -4.1521136201       -2.4209077887       -9.5059863200
 C        -5.8728253120       -1.7056392812       -8.0252003666
 C        -6.8432861914       -1.9929174729       -9.2033815723
 C        -6.6461798071       -0.8784672737      -10.2599583419
 O        -6.3763279725        0.2539901776       -9.9314501525
 C        -6.9315658535       -1.2814399157      -11.7871866508
 C        -8.3466334410       -1.9922729642      -11.8236156414
 O        -8.3865457167       -3.1453077185      -11.5396487651
 C        -9.6069159774       -1.1325441690      -11.9713998428
 C       -10.8617211860       -1.9451950336      -11.6482695655
 C       -12.1216893994       -1.1493480953      -12.2103989352
 O       -11.9614240123       -0.0231336166      -12.5801057312
 C       -13.5348382543       -1.9353639535      -12.3413688764
 C       -14.7249913372       -0.9563921451      -11.9791879671
 O       -14.8688336152        0.0599974036      -12.6596693335
 C       -15.7053179223       -1.2089779099      -10.7555606879
 C       -16.4689569677        0.0725106988      -10.4281770121
 C       -15.7082869902        0.9698096836       -9.5168421513
 O       -14.9704769077        0.5806929051       -8.6573120017
 C       -15.6993334192        2.6514695863       -9.6333178038
 C       -14.3163230351        3.0651969833      -10.2153457597
 O       -14.1507159612        3.0491129411      -11.4204167058
 C       -13.2169129645        3.5195963871       -9.2221167438
 C       -11.9351851421        3.9525270837       -9.9240927861
 C       -12.3030704456        5.1872173957      -10.8358290075
 O       -13.3020010612        5.8002618842      -10.5437338519
 C       -11.4468865813        5.4967335204      -12.1460425969
 C       -12.2130824031        4.7909436945      -13.3498673777
 O       -12.1564576991        3.5785534479      -13.4136428201
 C       -13.0383896958        5.6136794744      -14.2554982082
 C       -14.3997214656        4.7629786256      -14.6228118185
 C       -14.3734484750        3.8455118623      -15.7031886806
 O       -14.3625974877        2.5980064333      -15.5662140277
 C       -14.6425522908        4.3877998161      -17.1560903153
 C       -16.0859195762        5.1172243061      -17.3246039268
 O       -16.5970523967        5.6260088883      -16.3028738431
 C       -16.8694153589        5.0216948339      -18.6253293819
 C       -17.7055817924        6.2560065860      -18.8485122809
 C       -16.7836816966        7.4697363764      -18.6449347046
 O       -15.7042644606        7.4010868496      -18.1036812680
 C       -17.2397439279        8.9054431058      -19.4010042243
 C       -18.7834508056        9.2095092379      -18.9253018520
 O       -19.7592386048        8.8326612250      -19.5546492914
 C       -18.9590515478        9.9293839913      -17.5511933199
 C       -16.3056491716       10.0276762219      -18.9713689320
 C       -17.3792952245        8.8558819793      -20.9299702963
 C       -13.6238385368        5.5108455666      -17.6049458796
 C       -14.5153553150        3.0995007519      -18.0902697102
 C       -11.1877939241        7.0127622884      -12.3663546967
 C        -9.9781346748        4.8835861336      -12.0029877125
 C       -16.6924607479        3.1558759589      -10.7076006806
 C       -16.0262346115        3.3387327474       -8.3229546848
 C       -13.6959978888       -2.2414481820      -13.8157002370
 C       -13.5999534797       -3.2836142166      -11.5313113972
 C        -6.7767894222       -0.1411598067      -12.6983770194
 C        -5.7245019298       -2.2215351689      -12.1137553752
 C        -3.6982449792       -2.0360576243       -5.9625330790
 C        -3.0991378908       -0.0621492438       -7.4249103372
 C         2.5577434611       -4.3316931814      -10.6928129328
 C         1.2512925393       -5.7578444109       -8.9804127378
 C         6.1316748584       -5.7129559269       -4.7179241340
 C         7.7678666150       -3.8043294189       -4.5814902156
 C         9.7161331159      -10.3665237102       -8.5583264697
 C         8.2008185101      -11.5791477856       -6.9635024684
 C        13.4166162723      -10.0933615965       -2.0075866818
 C        12.1338871954       -8.1810452915       -1.1799135738
 C        14.7958724993       -6.6251451680       -7.1328634774
 C        15.7874594622       -4.3351008776       -6.4089335557
 H        14.6531184051       -3.2779356441       -8.6985248844
 H        13.7550077007       -2.4876197445       -7.4075736413
 H        12.9124682381       -3.0446779991       -8.7466462313
 H        15.9792572924       -5.5435681177       -3.7931073123
 H        15.6389700757       -6.8004807897       -4.8168907053
 H        13.8624301659       -6.1948835924       -2.3881836962
 H        15.2970264406       -7.0984635259       -2.2184538827
 H        11.7006445925      -11.3233509695       -3.3587907450
 H        12.4760807214      -10.5218164345       -4.6925240520
 H         9.4552869936      -10.9093709535       -4.3303384924
 H        10.4347814743      -11.8613069527       -5.5084099593
 H         7.9881047058       -8.0158083607       -8.9927513469
 H         9.3341572468       -7.5235963306       -7.9844093910
 H         6.3833710875       -6.4060541676       -7.5687094122
 H         7.5352285314       -5.5851519996       -8.4677448707
 H         4.8198700812       -2.4646152147       -5.8383280655
 H         4.2799401120       -3.8968980945       -5.3700704252
 H         4.0156347425       -2.4123300356       -7.9811760728
 H         2.8182949860       -2.7827748103       -6.8383820290
 H        -1.0499739006       -4.1343539048       -9.5661759424
 H        -0.2217957588       -3.0472466967      -10.5997909565
 H        -1.9475614322       -1.7628877247       -9.8141562496
 H        -0.5811651499       -1.2783672769       -9.0810643401
 H        -6.0462736532       -0.7560447915       -7.5616165073
 H        -6.1449026610       -2.4994703431       -7.2531183826
 H        -7.9044440012       -1.9295146072       -8.8549474232
 H        -6.7108098512       -3.0541293244       -9.4317529666
 H        -9.5064262593       -0.7096956098      -12.9314997261
 H        -9.4806452527       -0.3251442201      -11.2997587382
 H       -11.0047633948       -1.9375019713      -10.5833119448
 H       -11.0547598315       -2.9756025638      -11.9570382454
 H       -15.1584276156       -1.4870135549       -9.8126142689
 H       -16.3441668815       -2.0833175631      -10.8700840906
 H       -17.3598463912       -0.2025938571       -9.7714764373
 H       -16.7445909322        0.4481874928      -11.3867448163
 H       -13.1215221402        2.8464673287       -8.4737878948
 H       -13.6096619254        4.5397305552       -8.9434975280
 H       -11.4112823207        3.2045185216      -10.4664204561
 H       -11.2537841406        4.1867232642       -9.1613376653
 H       -12.4086624838        6.0720126528      -15.0074887745
 H       -13.4784953120        6.4576539947      -13.7597740320
 H       -15.2610743277        5.4300150600      -14.7395585983
 H       -14.6207333849        4.2471571801      -13.6654633798
 H       -17.2911069604        4.0206050231      -18.4824587713
 H       -16.1907670495        4.8526410072      -19.4712364406
 H       -18.4333484253        6.2508688069      -18.0482486339
 H       -18.1186176323        6.3384201822      -19.8413635046
 H       -19.7797383610        9.5788878493      -16.9785364527
 H       -19.0150403225       10.9860655725      -17.7681794166
 H       -18.1576216459        9.6796852598      -16.9155918175
 H       -15.2360008280       10.0605865292      -19.3083112073
 H       -16.1537112839        9.9926046878      -17.9480089489
 H       -16.7725782296       11.0040833691      -19.2551488841
 H       -17.6968759230        7.8568401367      -21.3106557029
 H       -16.3251782367        9.0081122541      -21.2817805547
 H       -17.8174316481        9.7428284319      -21.3279440647
 H       -13.8062909534        5.5640492737      -18.6660143654
 H       -12.5381540117        5.3452114840      -17.2985530081
 H       -13.8824462604        6.4244060730      -17.0713275079
 H       -15.3003973611        2.3865945953      -17.8352653930
 H       -13.6284394780        2.5536190228      -17.9822388063
 H       -14.5153812506        3.3468348177      -19.1347070771
 H       -10.8061952935        7.5556580416      -11.4472451301
 H       -12.1070920985        7.4553001127      -12.6368430384
 H       -10.4376579885        7.0474495617      -13.1099948453
 H        -9.9605330454        3.7940154832      -12.2833889852
 H        -9.4220530013        5.2299446674      -11.1523814382
 H        -9.3361355641        5.3126239198      -12.7346612177
 H       -17.7816144657        3.2530886133      -10.3065811906
 H       -16.8726440913        2.4531990830      -11.4276688894
 H       -16.3275086329        4.0272911575      -11.2646942267
 H       -17.0455973884        2.9815968137       -8.0083304066
 H       -16.0055795226        4.4737734835       -8.4511401962
 H       -15.3359283235        3.0967129353       -7.5311577671
 H       -13.9681590024       -1.3194284456      -14.3529850829
 H       -14.4830370532       -2.9981230189      -13.9625961311
 H       -12.7325080248       -2.4746931945      -14.2256797713
 H       -12.9702106132       -4.0552255302      -11.8587996347
 H       -14.6226107771       -3.7006847063      -11.4943629956
 H       -13.2606850344       -3.1389000558      -10.4891045816
 H        -6.6924114163       -0.4299495438      -13.7472202498
 H        -5.8864172120        0.3641941186      -12.5007795096
 H        -7.5403603961        0.6809543786      -12.7646380522
 H        -5.6612248917       -2.7208938700      -13.1218091101
 H        -5.5275978628       -3.0656109861      -11.3911895688
 H        -4.7989103073       -1.6291529308      -12.1183081839
 H        -3.6974200293       -3.1827257936       -5.9260338170
 H        -4.7767722372       -1.8429335035       -5.6419289928
 H        -3.0277790351       -1.6357339812       -5.2183594604
 H        -2.9944520025        0.3562543494       -6.4087771875
 H        -4.0253582499        0.3103120358       -7.9522169427
 H        -2.2096646851        0.2242652740       -7.8821462157
 H         1.6520443843       -4.2315814744      -11.3091983641
 H         2.9405673298       -5.3295937631      -10.8413139275
 H         3.2505446803       -3.5285271521      -10.8639570302
 H         2.0226260802       -6.5423120720       -9.0960287034
 H         0.5505622766       -5.9439493610       -9.7621576402
 H         1.0081035373       -6.0229246020       -7.9786584084
 H         5.4725254195       -5.1288173952       -4.0660329092
 H         6.7580641154       -6.1189872121       -3.9200020261
 H         5.5967692612       -6.4023887084       -5.3047492063
 H         8.5272160288       -3.1719120176       -5.0606434976
 H         8.2501572545       -4.6287401036       -3.9185448189
 H         7.0841761228       -3.1830301906       -4.0180231874
 H         9.0605707412      -10.7843895924       -9.2760089666
 H        10.6191772833      -10.9418668618       -8.3789029723
 H         9.9777603458       -9.3340710667       -8.8614886212
 H         7.4984986912      -11.4563057663       -6.1535142880
 H         8.8594433621      -12.3963874994       -6.7385840484
 H         7.6769463085      -11.7878677323       -7.8945971842
 H        14.1943482035       -9.7299276252       -1.3747401306
 H        13.8019375319      -10.5875806904       -2.8532662175
 H        12.7777222165      -10.7517885674       -1.3958206333
 H        11.3062390417       -8.6673314734       -0.6588311331
 H        11.7578679742       -7.1347949276       -1.3579027646
 H        12.9918106255       -8.0821738959       -0.5254597190
 H        14.1360602799       -6.9068501271       -7.9722704797
 H        14.4971949603       -7.4605568157       -6.4579043011
 H        15.8597457677       -6.8696682586       -7.3006364705
 H        16.6549818861       -4.9097010237       -6.2048501635
 H        15.5473320242       -3.5282013156       -5.7131892501
 H        15.9872754073       -3.7079185026       -7.3254455828
 Na       11.1180322576       -6.6061579619       -5.9542560322
 Na      -13.5633471233        1.7692223872      -13.2946071129
