232

 C        13.6201711065       -3.1359043991       -7.9515878132
 C        13.4143237676       -4.5791880455       -7.3626879661
 O        12.4316348546       -5.2563717110       -7.6320644324
 C        14.5793742748       -5.2029203501       -6.5264058867
 C        14.0109658368       -5.6727845838       -5.0196342658
 O        12.8735304852       -5.6485663818       -4.6423054173
 C        15.0573282903       -6.1492982955       -4.0650582250
 C        14.3190889817       -6.8720100471       -2.9021137287
 C        13.4974811739       -8.0472989762       -3.3959552076
 O        13.5784343774       -8.4545331915       -4.5737555129
 C        12.6390231490       -8.8850308905       -2.3926520845
 C        11.3684163368       -9.1040272901       -3.4336946914
 O        10.6443888307       -8.2251616736       -3.7952947978
 C        11.4276393649      -10.4650452099       -4.2253079231
 C        10.2227619451      -10.8329822479       -5.0182023306
 C        10.0341804686       -9.7979922416       -6.1615132674
 O        10.7475461074       -8.8412262453       -6.3229992858
 C         8.9229177746      -10.0214481347       -7.2147003417
 C         8.0231018771       -8.8192200061       -7.0842877997
 O         7.1532681972       -8.8874790926       -6.1469852848
 C         8.2301555120       -7.6436623296       -7.9528057509
 C         7.4986609577       -6.4233937929       -7.6455969140
 C         7.9313443220       -5.7370010786       -6.3030476940
 O         8.9170185068       -6.0299968181       -5.6912754945
 C         6.9247255548       -4.7844504614       -5.5976872190
 C         6.1540215713       -3.8807977789       -6.7660030886
 O         6.8622900027       -3.4039878214       -7.6352502171
 C         4.7659494560       -3.5056220969       -6.3065669634
 C         3.6912246402       -3.1991237618       -7.4822812405
 C         3.3561328900       -4.4475090955       -8.2838580481
 O         4.1574833363       -5.3809793566       -8.3871365847
 C         2.0620035343       -4.4903560802       -9.2018209971
 C         1.0625940460       -3.1503584684       -8.9994889975
 O         1.4179200692       -2.1606821242       -8.3309129394
 C        -0.2666352021       -3.1446943394       -9.6811124255
 C        -1.3384126650       -2.0305121596       -9.2075077193
 C        -1.9345853877       -2.4094986137       -7.7993563988
 O        -1.3360721008       -3.0188338417       -6.9738739141
 C        -3.2832466524       -1.6086197900       -7.4329750556
 C        -4.4529312980       -2.0061399643       -8.3762293589
 O        -4.3236871917       -2.3187378724       -9.5415648489
 C        -5.8965620758       -1.7246081560       -7.8242863930
 C        -6.8493087187       -2.0301227403       -9.0758577815
 C        -6.7861030628       -0.8628713766      -10.1344637799
 O        -6.4316512715        0.2826130742       -9.8352251933
 C        -6.9043823822       -1.2718235412      -11.7249676325
 C        -8.2585940698       -2.0421452334      -11.8138475964
 O        -8.3623868616       -3.2318432076      -11.5762374101
 C        -9.6152872142       -1.1370943156      -12.1256711094
 C       -10.9235635351       -1.8643948997      -11.7069184752
 C       -12.2754712167       -1.1650651072      -12.1879136514
 O       -12.2353070114       -0.0410643142      -12.6308493719
 C       -13.6133817383       -1.9376967881      -12.2869582936
 C       -14.7863354246       -0.9624763591      -11.9267348252
 O       -14.9903934439       -0.0189672329      -12.5977930203
 C       -15.6579763879       -1.2075114557      -10.7391977241
 C       -16.4776480599        0.0868733592      -10.3716528588
 C       -15.6533520091        1.0781625534       -9.4703466693
 O       -14.8886143272        0.6043435927       -8.6608660962
 C       -15.6999336638        2.6856819527       -9.6966451811
 C       -14.3037828762        3.0834063038      -10.2177730722
 O       -14.0397178635        3.1206785564      -11.4284624342
 C       -13.2478499030        3.5349337822       -9.1497412894
 C       -11.9612405455        3.9338511408       -9.8718286815
 C       -12.1968305307        5.1662570270      -10.8375024771
 O       -13.0808072625        5.9416375482      -10.5765171708
 C       -11.3756448000        5.4355186455      -12.1285871512
 C       -12.1341491608        4.8417527024      -13.3422663889
 O       -11.9108098148        3.6410435209      -13.6067123899
 C       -13.0788566568        5.6757439019      -14.2435717946
 C       -14.3936611057        4.7608199405      -14.5828194285
 C       -14.3689366053        3.7356133462      -15.6564524054
 O       -14.4630681865        2.5355749402      -15.4912293357
 C       -14.5928186020        4.3353743466      -17.1676866569
 C       -16.0450111606        4.9601859959      -17.1612479766
 O       -16.6736778906        5.5278037186      -16.2322007455
 C       -16.5711539186        5.0240174362      -18.6365993547
 C       -17.5244480434        6.1734865114      -18.8928445819
 C       -16.8027026943        7.4873884719      -18.7951345645
 O       -15.7180570872        7.4392691500      -18.2037606600
 C       -17.3017061923        8.8542192070      -19.2246924713
 C       -18.7597216939        9.1354225549      -18.7311143075
 O       -19.6936772235        8.9210600365      -19.4668367399
 C       -19.0058952084        9.9984385198      -17.3885083923
 C       -16.3846158683        9.9947975406      -18.7887131941
 C       -17.4662772134        8.8020812546      -20.7744219890
 C       -13.5954418934        5.3089194567      -17.6706480074
 C       -14.6318674978        3.0968760755      -18.1131365390
 C       -11.2518857823        6.9765660553      -12.1990239025
 C        -9.9923458387        4.7558359612      -12.0078668698
 C       -16.6789005064        3.3697322040      -10.7411012047
 C       -16.0223125192        3.4377478787       -8.3480775383
 C       -13.7353510861       -2.3091903231      -13.8621259505
 C       -13.5812988037       -3.2780476670      -11.5266268610
 C        -6.8434790883       -0.1330825232      -12.8330735840
 C        -5.8095799754       -2.3041572934      -12.0518036880
 C        -3.6219643955       -1.9711136327       -5.9215053352
 C        -3.0402034019       -0.0701008458       -7.5362987494
 C         2.6557814362       -4.4270867677      -10.5986338567
 C         1.2544471750       -5.7557889288       -8.9785410302
 C         6.2375886685       -5.7473238970       -4.5678420977
 C         7.5953880116       -3.6608532054       -4.7112891543
 C         9.6929898324      -10.1699863339       -8.5584083954
 C         8.1116872344      -11.3451674257       -6.9746666707
 C        13.3906868902      -10.2187514551       -2.0631928460
 C        12.2696588484       -8.1189631593       -1.0697292989
 C        14.9111205927       -6.6352201795       -7.1454183117
 C        15.8854246761       -4.4164420164       -6.3875389893
 H        14.5895808786       -2.9712720174       -8.4107496902
 H        13.4385002917       -2.3294130513       -7.1834052559
 H        12.8065206941       -2.8620193193       -8.6892886707
 H        15.7194381036       -5.3927395132       -3.7220512576
 H        15.8111057397       -6.7244921538       -4.5606842006
 H        13.8604515593       -6.1043365165       -2.1857127622
 H        15.1616044703       -7.1902069059       -2.3002427815
 H        11.7101341773      -11.3223967861       -3.6101064312
 H        12.3143139393      -10.2770466347       -4.8351349182
 H         9.3434521548      -10.8582012236       -4.3782915442
 H        10.3249258120      -11.8358355317       -5.5003569472
 H         8.0972194386       -8.0277619779       -8.9716546784
 H         9.3034291871       -7.4345749474       -7.9498339321
 H         6.3738587007       -6.5264020994       -7.7767919266
 H         7.6463919830       -5.7682632476       -8.4818687671
 H         4.7456138937       -2.6186604683       -5.6443808927
 H         4.2149860148       -4.2106404643       -5.7433350015
 H         3.9681047815       -2.4077028744       -8.1584897052
 H         2.8089912129       -2.7577406618       -6.9749336305
 H        -0.8370618594       -4.0439660072       -9.4823777628
 H        -0.1171321490       -3.1941830635      -10.7251241010
 H        -2.0502152357       -1.8032192807       -9.9412648227
 H        -0.8091751311       -1.0368834729       -9.0814934083
 H        -5.9020066487       -0.6196433621       -7.4093322732
 H        -6.2585005494       -2.3880835676       -6.9918052650
 H        -7.9018703784       -2.1859693685       -8.8527925653
 H        -6.5184240464       -2.9566640629       -9.3614746855
 H        -9.4840497221       -0.9671239489      -13.1761999200
 H        -9.4275229934       -0.1912706043      -11.6633656851
 H       -11.0817378642       -2.0904080846      -10.5915749213
 H       -11.0985208655       -2.8858909338      -12.2067694655
 H       -15.0539896083       -1.5263790631       -9.8822733559
 H       -16.2876412309       -2.0669246979      -10.8526567742
 H       -17.3039191420       -0.2430032786       -9.6638637984
 H       -16.8269572973        0.3894237478      -11.3642804438
 H       -13.0539831143        2.6741055962       -8.5614906104
 H       -13.5771705534        4.4102016961       -8.6749239871
 H       -11.5605859900        3.1062497221      -10.4321492552
 H       -11.2398833567        4.0767527413       -9.1560654197
 H       -12.5745124782        5.9811483457      -15.1638258523
 H       -13.4834231371        6.6260176008      -13.8395290830
 H       -15.2413634375        5.4026333574      -14.7664817370
 H       -14.6527750881        4.2449785230      -13.6714492344
 H       -17.0010686973        4.0067780889      -18.8206073068
 H       -15.7719891365        5.0338250513      -19.3643472062
 H       -18.2542563291        6.1260584880      -18.0944158481
 H       -17.9586178875        6.0604419519      -19.9244665655
 H       -19.8337602881        9.4765932418      -16.8632799339
 H       -19.2731844061       10.9914303615      -17.7272534989
 H       -18.3135184030        9.9824813713      -16.5881210415
 H       -15.3369228446        9.7263489672      -18.6465456139
 H       -16.5266078031       10.4317427775      -17.7857774303
 H       -16.4350684417       10.7609664499      -19.5832576452
 H       -17.5892158633        7.7315266226      -21.1244701004
 H       -16.4607728473        9.0965651696      -21.1049628262
 H       -18.0869778049        9.5461538694      -21.2231067011
 H       -13.6654338551        5.4750792033      -18.7401635524
 H       -12.6425123234        4.8871095604      -17.3242705714
 H       -13.6515483271        6.1847079092      -17.0470208975
 H       -15.5228448418        2.5000344036      -17.9254716933
 H       -13.8136586155        2.3528984962      -17.9670219556
 H       -14.5266954287        3.3612510105      -19.1100764392
 H       -10.6807944981        7.4051051370      -11.3815091030
 H       -12.2743917122        7.3303031478      -12.0955779474
 H       -10.7350457391        7.1799725017      -13.1299386655
 H       -10.0914735825        3.7014512255      -12.0800962608
 H        -9.4377681512        5.1808200618      -11.1840083266
 H        -9.3232410447        5.0596094493      -12.8148820588
 H       -17.6367623765        3.0332746988      -10.6547275686
 H       -16.4221032565        3.1139406647      -11.8178470558
 H       -16.5501873150        4.4744771299      -10.7487108220
 H       -16.9243611361        3.1058485508       -7.8361999844
 H       -15.9967200387        4.4533232994       -8.5819799112
 H       -15.1803038696        3.3367894144       -7.6187047889
 H       -13.5793391708       -1.3654813949      -14.4484116126
 H       -14.5818241430       -2.8355192662      -14.1017814703
 H       -12.8021690934       -2.8379844545      -14.1311125704
 H       -12.7767036043       -3.9745011137      -11.8758173625
 H       -14.4974417871       -3.7903209829      -11.6604216953
 H       -13.3911216323       -3.2124306924      -10.4527427130
 H        -6.3983048025       -0.5644216990      -13.7393393788
 H        -6.1591234259        0.6497095546      -12.6490021666
 H        -7.7064462957        0.3199779893      -13.1636772007
 H        -5.7458028481       -2.6789679039      -13.0571337059
 H        -5.8298309322       -3.2286701584      -11.3713273522
 H        -4.7450338335       -1.8704047427      -11.9108126987
 H        -4.0124432602       -2.9856278293       -5.7821643496
 H        -4.5403857731       -1.3883490133       -5.6673796751
 H        -2.8161708299       -1.7432812193       -5.1256389469
 H        -2.5877966394        0.2396838401       -6.6619732567
 H        -4.0773381011        0.3278075286       -7.6063447351
 H        -2.3521945324        0.3453222862       -8.4188679966
 H         1.9499415810       -4.3095214730      -11.4019826906
 H         3.1375187620       -5.3640832030      -10.6835665081
 H         3.3081503730       -3.6241771956      -10.5602759344
 H         1.8249682117       -6.6061074176       -8.6608249596
 H         0.6043438935       -6.0503233565       -9.8250348537
 H         0.7812693294       -5.5918613689       -7.9346089182
 H         5.5137052723       -5.2297672242       -3.9197915525
 H         6.8788603207       -6.0332385376       -3.8242879387
 H         5.7951846198       -6.5386958261       -5.1574429082
 H         8.3179051668       -2.9506542011       -5.1205131143
 H         8.0215548945       -4.1765345920       -3.8865380729
 H         6.6536368151       -3.1297161892       -4.3935937367
 H         8.9249170245      -10.0975299066       -9.3309774469
 H        10.0817754759      -11.2443534565       -8.4518575078
 H        10.4986137053       -9.4585570428       -8.7138114155
 H         7.4877514124      -11.1969670033       -6.0776987039
 H         8.7068802987      -12.2306758032       -6.8782686248
 H         7.4712166986      -11.4632722185       -7.8409278073
 H        14.1798009986       -9.9423901064       -1.4531557471
 H        13.7185982720      -10.7286990645       -2.9470479461
 H        12.7534469767      -10.8595751344       -1.4493364356
 H        11.3547906835       -8.4786129932       -0.6219290879
 H        11.9590806567       -7.1197689953       -1.3235383741
 H        13.0725183369       -8.0786687427       -0.3062592328
 H        14.1148824442       -6.9853114903       -7.8011037536
 H        14.9771940465       -7.4587514401       -6.4490841596
 H        15.9172525962       -6.7037786210       -7.5613241609
 H        16.6517226159       -5.0104421423       -5.7892607829
 H        15.5776866136       -3.4931896391       -5.9141628723
 H        16.3154685558       -4.0710823678       -7.3064657933
 Na       11.0759819738       -6.6050935335       -5.9374897657
 Na      -13.5978184441        1.7136818485      -13.3561513951
