232

 C        13.4865004334       -3.1542296041       -7.7009694288
 C        13.4582733281       -4.5644837351       -7.2709071642
 O        12.4342248559       -5.1842401433       -7.5267833693
 C        14.5796855997       -5.3538715164       -6.4148211413
 C        14.0807559086       -5.6702966357       -5.0636224583
 O        12.8355656804       -5.6431427258       -4.8228792968
 C        15.0578919552       -6.1527251576       -3.8749671799
 C        14.3162739110       -6.9204638856       -2.7646101369
 C        13.6452795467       -8.0912208207       -3.4057313077
 O        13.7035130221       -8.3581973889       -4.6013138599
 C        12.5912831007       -8.8937107699       -2.4630466249
 C        11.3610158967       -9.1728599696       -3.3954633730
 O        10.6805008214       -8.1905134820       -3.6182981742
 C        11.3209780909      -10.4437533986       -4.1968024300
 C        10.1446725149      -10.6856056203       -5.0450740737
 C        10.0689823795       -9.7752533080       -6.2018923921
 O        10.8620599248       -8.8582519441       -6.3229168308
 C         8.9139410593      -10.0563391219       -7.3090935692
 C         8.0097709519       -8.8180600877       -7.1125167707
 O         7.1352063578       -8.7043544156       -6.2447770165
 C         8.3357724312       -7.5364929080       -8.0023510530
 C         7.5247866849       -6.3338276976       -7.5852631688
 C         7.9346760375       -5.7887238834       -6.2674953291
 O         8.9911478122       -6.0576712452       -5.7399435878
 C         6.8902736320       -4.7662705632       -5.5809313434
 C         6.0714235526       -3.9936015842       -6.7235995919
 O         6.7402614809       -3.5963513825       -7.6662972600
 C         4.7381302189       -3.5945241387       -6.3845729503
 C         3.7919973239       -3.1851140256       -7.5805374674
 C         3.3815514735       -4.3879889881       -8.3797444313
 O         4.1250127943       -5.3512593933       -8.4593047801
 C         2.0578036134       -4.3923421596       -9.2028999346
 C         1.1253835354       -3.1164751774       -9.0572561866
 O         1.4479792316       -2.1702186204       -8.3171218568
 C        -0.2234830317       -3.2176935258       -9.7758590181
 C        -1.2663192551       -2.1180035959       -9.2675833682
 C        -1.8367071315       -2.3448405185       -7.9185740755
 O        -1.3353086541       -3.1173597555       -7.1477712323
 C        -3.2920808720       -1.5881480258       -7.4293121060
 C        -4.5031914905       -1.9309449773       -8.3490053747
 O        -4.2894687649       -2.2655896866       -9.4705807882
 C        -5.9325409650       -1.7989871830       -7.8939660624
 C        -6.9582917813       -1.9165997752       -9.0685552444
 C        -6.7195132276       -0.8727197355      -10.1189736858
 O        -6.5810021310        0.2844606351       -9.8176608323
 C        -6.9452931672       -1.3840107336      -11.6448766064
 C        -8.3707268663       -2.0249531592      -11.7573655709
 O        -8.4428987801       -3.2335628263      -11.6304526203
 C        -9.6961289284       -1.2387914045      -12.2452645022
 C       -10.9478122681       -1.8766703474      -11.8216043231
 C       -12.2419139543       -1.1560468462      -12.3009955747
 O       -12.3002865394        0.0401835497      -12.6241448034
 C       -13.6034147898       -1.9835166310      -12.3101733100
 C       -14.8112702860       -0.9909821908      -11.8851311495
 O       -15.0973040287       -0.0533553193      -12.6311995555
 C       -15.6487866572       -1.1433929322      -10.5896549419
 C       -16.5266744264        0.1659693478      -10.2621175254
 C       -15.6055961725        1.2291162898       -9.5397820724
 O       -14.8236282519        0.8139155398       -8.6837425603
 C       -15.6683553956        2.8005883959       -9.7920072384
 C       -14.2669665733        3.1366554599      -10.1950308068
 O       -13.9023144474        3.0915539290      -11.3654598821
 C       -13.1869030317        3.5271509967       -9.1751501192
 C       -11.9288090552        3.9696022196       -9.9670404224
 C       -12.2424302469        5.1455081932      -10.8214562786
 O       -12.9964206917        6.0343963990      -10.4582362316
 C       -11.2436416414        5.4206794126      -12.1371393756
 C       -11.9990324743        4.7568895499      -13.3807033541
 O       -11.7288036344        3.6181188190      -13.7928087804
 C       -13.1350610723        5.5680697634      -14.1370113553
 C       -14.3998277934        4.8128762931      -14.4154167783
 C       -14.4694488458        3.7280912021      -15.5943107398
 O       -14.4027218891        2.5670352182      -15.3034509180
 C       -14.6134975484        4.1491721060      -17.1290279004
 C       -15.9993244991        4.9355423327      -17.2117000913
 O       -16.6066970691        5.2494420325      -16.2640074012
 C       -16.5299542806        5.0316228811      -18.7146593486
 C       -17.5213101734        6.1647863702      -18.9442378204
 C       -16.7071702666        7.5457481787      -18.6662352413
 O       -15.5615873534        7.4996099644      -18.2726010062
 C       -17.3536208435        8.9330324366      -19.1140477899
 C       -18.8650075143        9.2284714757      -18.5692426682
 O       -19.7864775369        8.9201671392      -19.2737047476
 C       -19.1220831455        9.9125004934      -17.2682726765
 C       -16.3901867216       10.0027334941      -18.7148558570
 C       -17.4410554214        8.7572965804      -20.7239103212
 C       -13.4771081355        5.1094216382      -17.5718075185
 C       -14.6984241125        2.9413870268      -18.0862859605
 C       -11.2162434819        7.0073683751      -12.1423653754
 C        -9.8981056514        4.6512046706      -12.0285818078
 C       -16.7497981273        3.2783656693      -10.7831125228
 C       -16.0450971594        3.3514835477       -8.3302348682
 C       -13.7674725383       -2.3488059578      -13.8413886033
 C       -13.6329191132       -3.2664449279      -11.4780176393
 C        -6.8949795579       -0.1578167409      -12.6321606457
 C        -5.9233291111       -2.4078661007      -11.9996918454
 C        -3.5236852782       -1.9155857533       -5.9663516497
 C        -3.0137323813       -0.1304684762       -7.6368893651
 C         2.6671969142       -4.4622323689      -10.6589405668
 C         1.2407779822       -5.6813926187       -8.9066715118
 C         6.0943876678       -5.6710756995       -4.6738306668
 C         7.5487766245       -3.5563734400       -4.8827556527
 C         9.6383779847      -10.0127424287       -8.7167686325
 C         7.9731192943      -11.2398310437       -6.9601314926
 C        13.2978194761      -10.2104347600       -2.0960148917
 C        12.3206247508       -8.1031502755       -1.1758311005
 C        14.9935384747       -6.6514400383       -7.2364637201
 C        15.8562170848       -4.4889836234       -6.3189699598
 H        14.4532545031       -2.8347827112       -8.1550962495
 H        13.2346927680       -2.5243434715       -6.8189869803
 H        12.6513685553       -2.8603483426       -8.4038307068
 H        15.4994936832       -5.2259452863       -3.4238408873
 H        16.0698226822       -6.5125433797       -4.2325075688
 H        13.5748146397       -6.2126437401       -2.3778702022
 H        14.9427476929       -7.0353890822       -1.8865535039
 H        11.4062446912      -11.2879234887       -3.5425172084
 H        12.3106520044      -10.4275694045       -4.7095343711
 H         9.1732879272      -10.5929676017       -4.4647959150
 H        10.1618621909      -11.6435005785       -5.4491554935
 H         8.0207591927       -7.8593337530       -9.0082620695
 H         9.3528790871       -7.3835904643       -8.1477382011
 H         6.4953209751       -6.6401706869       -7.5798040912
 H         7.4917423690       -5.5817068159       -8.3306467636
 H         4.6462108651       -2.7346160723       -5.6902116622
 H         4.0787274935       -4.3667207880       -5.9378313487
 H         4.1900575012       -2.4078201601       -8.1892797501
 H         2.9543629540       -2.7002169323       -7.0997927787
 H        -0.7493006181       -4.1668677594       -9.7806031668
 H        -0.0686319981       -3.0788780745      -10.8623099772
 H        -2.1349984401       -2.0989142920      -10.0184594509
 H        -0.7931673717       -1.1160689572       -9.4797645237
 H        -6.0457461181       -0.7380662513       -7.4838227183
 H        -6.2742250607       -2.4554009952       -7.0890171950
 H        -7.9127674900       -1.6062550694       -8.7231437916
 H        -7.0747391424       -2.9877863113       -9.3191774722
 H        -9.5093057668       -1.1761661429      -13.3425056245
 H        -9.5396073248       -0.2011095462      -11.8538838494
 H       -11.2256719471       -1.9577038761      -10.7191070549
 H       -11.0875404808       -2.9391483098      -12.1742765580
 H       -15.1061373303       -1.5221282746       -9.7571479935
 H       -16.3406936735       -1.9788992846      -10.7888893337
 H       -17.3814981140       -0.0659263780       -9.6738009151
 H       -16.7347050658        0.4076229971      -11.3444764934
 H       -12.9260699094        2.4774594165       -8.7215435192
 H       -13.4731893051        4.3416257015       -8.5734786741
 H       -11.4931790224        3.1382365020      -10.5245045286
 H       -11.0876509924        4.2471954719       -9.2365479816
 H       -12.9329461748        5.7994840065      -15.1980932684
 H       -13.4305916789        6.5729862311      -13.7371963287
 H       -15.1536627396        5.5925321921      -14.5482592644
 H       -14.7271184557        4.2351519636      -13.5734907703
 H       -16.8348403440        4.0324629236      -19.0504753682
 H       -15.7269140970        5.2298156503      -19.4551576306
 H       -18.4357983370        6.0544862189      -18.3032440130
 H       -17.7336324992        6.0652901884      -20.0257996656
 H       -19.9785315984        9.4341419424      -16.7524154722
 H       -19.2427842661       10.9842298644      -17.4973769251
 H       -18.3698169839        9.7452691290      -16.4562316629
 H       -15.5633009290        9.4544328281      -18.3344780494
 H       -16.5181048455       10.6550617391      -17.8084242364
 H       -16.0021969246       10.5481670194      -19.5447063773
 H       -17.7678118674        7.7754091536      -20.9705052415
 H       -16.4997797121        8.9571832368      -21.2150982062
 H       -18.1541958980        9.5375440478      -21.1577903541
 H       -13.7100284170        5.4237262067      -18.6158269240
 H       -12.5625166289        4.6089123139      -17.5183739075
 H       -13.3467841086        5.9453687650      -16.8991408978
 H       -15.5589523594        2.3129221738      -18.1118329807
 H       -13.8406317363        2.2322566187      -18.0017203791
 H       -14.4949380327        3.4029422501      -19.0832771554
 H       -10.4489145907        7.3449379431      -11.5277781358
 H       -12.1628537893        7.3244200125      -11.6576222344
 H       -10.9644794675        7.3719871696      -13.1654922748
 H       -10.1627555157        3.6460613675      -11.9397951346
 H        -9.2702562059        5.0451054481      -11.2407190906
 H        -9.2174217589        4.7264979810      -12.8998525962
 H       -17.5108329959        2.5471553579      -10.9418611900
 H       -16.3421015049        3.5264970744      -11.8333560983
 H       -17.1239694103        4.2305883974      -10.5136961281
 H       -16.9923453520        3.0453707429       -7.9877358409
 H       -15.7829662104        4.3745829342       -8.2821374192
 H       -15.3242144198        2.9274673412       -7.6417976486
 H       -13.4054664982       -1.5172366716      -14.3943069682
 H       -14.8191152269       -2.6565328347      -14.0599139286
 H       -13.1066344296       -3.1536475179      -14.1913626383
 H       -12.7387192652       -3.9217273548      -11.6499440626
 H       -14.5101100774       -3.8753930904      -11.6482139637
 H       -13.6043808695       -3.0532061298      -10.4233851258
 H        -6.3147000414       -0.3168829507      -13.5099672983
 H        -6.3311542409        0.7092613554      -12.2178431047
 H        -7.8577162754        0.1962474265      -12.9121146593
 H        -5.8077733200       -2.6068876060      -13.0770751671
 H        -6.0152060865       -3.3367961010      -11.5045852677
 H        -4.9238407576       -2.0597378540      -11.7405106682
 H        -4.1545738396       -2.7252941037       -5.7102723833
 H        -4.0751158736       -1.0614010239       -5.6197733236
 H        -2.5838570324       -1.9475970448       -5.3743666336
 H        -1.9772659670        0.1509759815       -7.2543580983
 H        -3.7667526860        0.4684980357       -7.1636872191
 H        -2.9829061435        0.0471551446       -8.7493686984
 H         1.9877415524       -4.5636969534      -11.4418744994
 H         3.2772995451       -5.3283982529      -10.5976764674
 H         3.2133806971       -3.5348784706      -10.7471712163
 H         1.8142440780       -6.5286609361       -8.4863738080
 H         0.7452037232       -5.9620923251       -9.8940417227
 H         0.5576951074       -5.5720472194       -8.0579190425
 H         5.4353192902       -5.1947607181       -4.0059987869
 H         6.7635942521       -6.0305780232       -3.8983325896
 H         5.6710265498       -6.4823374862       -5.2861734324
 H         8.1016336798       -2.9592658770       -5.6236282017
 H         8.2502475423       -3.7825726146       -4.1455680324
 H         6.6834340743       -2.9725419036       -4.5861755333
 H         8.9068873544       -9.4610622159       -9.3775473246
 H         9.7929345746      -11.0382815620       -9.0481440577
 H        10.5941510960       -9.4875674224       -8.6428525016
 H         7.5700266954      -11.0718809490       -5.9618212050
 H         8.4185584100      -12.2487440998       -7.0662438456
 H         7.1551970301      -11.1740667138       -7.6743189031
 H        14.1121127511       -9.9474767779       -1.3926587859
 H        13.6768086291      -10.6687030445       -3.0245772031
 H        12.6819991637      -10.8947263643       -1.5927429258
 H        11.5654955649       -8.6123280211       -0.5918367055
 H        11.8543873610       -7.1620167970       -1.3011922674
 H        13.2313049838       -8.0674868089       -0.5667224514
 H        14.1138209460       -7.0760940869       -7.6504416371
 H        15.6156093290       -7.4271240632       -6.8255034693
 H        15.6576976359       -6.3237286020       -7.9944387511
 H        16.5478408940       -4.9258820726       -5.5516145373
 H        15.6215789954       -3.4157881825       -6.1505987955
 H        16.3281519754       -4.4985936735       -7.2864894559
 Na       11.1234581986       -6.6106266486       -5.9150210083
 Na      -13.6445757941        1.7604974404      -13.4712619224
