232

 C        13.5158716714       -3.1815559803       -7.3866386566
 C        13.3956116952       -4.6542790463       -7.1587121521
 O        12.3801731229       -5.2644502002       -7.3739458701
 C        14.6510828547       -5.4080849818       -6.5196826110
 C        14.0567206686       -5.7605838797       -5.0588570927
 O        12.8816039950       -5.6445145264       -4.8072633825
 C        14.9884202130       -5.9651629231       -3.7901056069
 C        14.2942399942       -6.8483324548       -2.7520519543
 C        13.6809639134       -8.0329692683       -3.4103827839
 O        13.8901622140       -8.3442699832       -4.5497224020
 C        12.7206524166       -8.9302130132       -2.5030866776
 C        11.4320881233       -9.0426439641       -3.4521961477
 O        10.5604229564       -8.1888106587       -3.4633043870
 C        11.2566996803      -10.4806778788       -4.0334205475
 C         9.9915546820      -10.6362480617       -4.9321261773
 C        10.0570643217       -9.7949126862       -6.2998230598
 O        10.9043410322       -8.9400072542       -6.5174268480
 C         8.8890163933       -9.9097056766       -7.3717067088
 C         8.0334610499       -8.6111723625       -7.1383361077
 O         7.1658225935       -8.5894248905       -6.3904911853
 C         8.3273217204       -7.4129035760       -8.1354481857
 C         7.5065457032       -6.2226233555       -7.6104015008
 C         7.9904292871       -5.6821740538       -6.3073019271
 O         9.0438024468       -5.9529692259       -5.6704614312
 C         6.9339684764       -4.7421483738       -5.6084343666
 C         6.0302660477       -4.1111525302       -6.7301418902
 O         6.5340653401       -3.7770479202       -7.7913409592
 C         4.6301252422       -3.6858341509       -6.2977725995
 C         3.8920491858       -3.1461376428       -7.5513049334
 C         3.4382963300       -4.3211788359       -8.4116608718
 O         4.0651890534       -5.3632855300       -8.4424885886
 C         2.0913651437       -4.2879138699       -9.2746511257
 C         1.0916175023       -3.1286247659       -9.0661694206
 O         1.3561489484       -2.1493558771       -8.4718448994
 C        -0.2232582864       -3.1908364296       -9.8023362401
 C        -1.3077873186       -2.1647418938       -9.4135768945
 C        -1.9206955765       -2.4717995512       -8.0164004895
 O        -1.3521622950       -3.2495273522       -7.2303376266
 C        -3.1353563533       -1.5451829966       -7.4530690536
 C        -4.4388481930       -1.9441068507       -8.4190064927
 O        -4.2216779812       -2.2918442669       -9.5899102127
 C        -5.9219163302       -1.7953704596       -7.8575590236
 C        -7.0561997164       -1.8733904505       -8.9105913520
 C        -6.9319000294       -0.8706700761      -10.0785966654
 O        -6.6551717103        0.2899777854       -9.9376281667
 C        -7.0669945240       -1.4176256903      -11.6396689798
 C        -8.5162572422       -2.0831542815      -11.8343682262
 O        -8.6529786818       -3.2487350543      -11.5952895461
 C        -9.7242039356       -1.2522775007      -12.3174817357
 C       -10.9917292844       -1.9120230245      -11.9030085239
 C       -12.3100085651       -1.1161639430      -12.2571084590
 O       -12.1304051121        0.0172410427      -12.6015977818
 C       -13.7222080113       -1.9306079159      -12.2986251068
 C       -14.8556999158       -0.9872290111      -11.8976403262
 O       -15.1296710443       -0.0500767585      -12.7054295650
 C       -15.6140349069       -1.0419297108      -10.5730447401
 C       -16.3808493123        0.2192162265      -10.2784121286
 C       -15.5354273277        1.2552664516       -9.5892357104
 O       -14.7281193699        0.9726250041       -8.7365940182
 C       -15.7170898031        2.8151004359       -9.7824123777
 C       -14.1957263185        3.1694711176      -10.2686990655
 O       -13.9013835239        3.0130479303      -11.4168360632
 C       -13.1136854450        3.5002533698       -9.2004681923
 C       -11.7912383536        3.9191594327       -9.9525851258
 C       -12.0964562320        5.1784006830      -10.7565128253
 O       -12.9527742658        5.9812837746      -10.4353104671
 C       -11.3052301913        5.3759682113      -12.1303045208
 C       -12.0238506305        4.6665159194      -13.4161867766
 O       -11.6245718968        3.6199110916      -13.7971099628
 C       -13.0861651991        5.5184887476      -14.0569080712
 C       -14.4349288228        4.8110075083      -14.3933820239
 C       -14.4550236612        3.7585942601      -15.5511498176
 O       -14.3587243682        2.5409681513      -15.2735882182
 C       -14.5975268597        4.0698184389      -17.0857800292
 C       -16.0019189401        4.8199519150      -17.3841544067
 O       -16.6592875754        5.0677966141      -16.3761249793
 C       -16.5414625388        5.0573435851      -18.7375941472
 C       -17.4319224037        6.3135813557      -18.8641334392
 C       -16.6911102473        7.5691871681      -18.6004090236
 O       -15.5482035576        7.4718119895      -18.2800573043
 C       -17.3539753862        8.9357654166      -19.0685348463
 C       -18.9265987404        9.2136280315      -18.4810335065
 O       -19.8764221998        8.8451014700      -19.1421019223
 C       -19.1042087856        9.7934979170      -17.1203795464
 C       -16.3992322342       10.1656845571      -18.6959830335
 C       -17.4563340292        8.8570331933      -20.5842696319
 C       -13.3523878497        4.9438116737      -17.4329885276
 C       -14.6417865598        2.7436544217      -17.8393181278
 C       -11.0016218621        6.8885032805      -12.3688059771
 C        -9.9309610422        4.7448050096      -12.0151310959
 C       -16.7819022075        3.1340260917      -10.8021367672
 C       -16.0919184485        3.3115580983       -8.3319343088
 C       -13.9075302438       -2.3590451705      -13.7618983847
 C       -13.6940772265       -3.1850568409      -11.4182157063
 C        -6.8361529804       -0.0745736989      -12.4196060591
 C        -6.0057179372       -2.4599953643      -11.9715374407
 C        -3.3956087268       -1.8836936272       -5.9647550461
 C        -2.9237756734       -0.0113465597       -7.7876520069
 C         2.5441819361       -4.4409452576      -10.8565657658
 C         1.2790288035       -5.6101797169       -8.8349878470
 C         5.9129700744       -5.5903181935       -4.7091090915
 C         7.6625592665       -3.5607972297       -4.9118389049
 C         9.4664638494      -10.0273058844       -8.7958377307
 C         8.0324117155      -11.1090119305       -7.0635215896
 C        13.3536761037      -10.3397812813       -2.0533685996
 C        12.2500202778       -8.1722176313       -1.3098686710
 C        14.9697044964       -6.6422848756       -7.3096436983
 C        15.9411281943       -4.3902583606       -6.2771427660
 H        14.5200595558       -2.9561462412       -7.8361878347
 H        13.3208303081       -2.6063432034       -6.4920841682
 H        12.7999776206       -2.7858555453       -8.0612774791
 H        15.4762196491       -4.9854678283       -3.4565857860
 H        16.0160144170       -6.3898207145       -4.1120488649
 H        13.6787158647       -6.2784141064       -2.1481935908
 H        15.0418619697       -7.2063352771       -2.0091355575
 H        11.2545274943      -11.1829208096       -3.1826413042
 H        12.1969951760      -10.7487787570       -4.5317768936
 H         9.0592642978      -10.2852239888       -4.4843213816
 H         9.8030170978      -11.6634464216       -5.2231579326
 H         8.2830137431       -7.7234417917       -9.1622434709
 H         9.3963421016       -7.2178793807       -8.0444106601
 H         6.4948104182       -6.4926485189       -7.5375183906
 H         7.5100490774       -5.3758475840       -8.3498404895
 H         4.6776775657       -2.7978162996       -5.6723323216
 H         3.8851634347       -4.3521380328       -5.8386501167
 H         4.7623092479       -2.6805956528       -8.0595310029
 H         3.2152743390       -2.3416609509       -7.4147110002
 H        -0.7797329413       -4.1419010948       -9.8979779880
 H        -0.0038742147       -3.0431063443      -10.9186665911
 H        -1.9971779030       -2.0918346682      -10.3523309834
 H        -0.8123567279       -1.1907349415       -9.4538539539
 H        -6.0455497337       -0.9496117436       -7.2824134009
 H        -6.0828257489       -2.6217158986       -7.1800630060
 H        -8.0604678981       -1.8322364946       -8.4635094600
 H        -6.9383632010       -2.9518915924       -9.2894872656
 H        -9.5290051265       -1.1136909110      -13.4168367798
 H        -9.5243473711       -0.2419200301      -11.8613998790
 H       -11.1852934872       -2.0404165686      -10.8722845086
 H       -11.0184213169       -2.9125115929      -12.2556728598
 H       -14.9353194535       -1.1685896733       -9.7173310676
 H       -16.2807251682       -1.9281097584      -10.4562702674
 H       -17.0759561473       -0.0560039227       -9.5278808768
 H       -16.8525091217        0.5119501716      -11.1954569280
 H       -12.9857292887        2.5250470861       -8.6659703335
 H       -13.5246872256        4.4580442368       -8.6740233466
 H       -11.4444293242        3.0583790806      -10.5921740803
 H       -10.8886027617        4.0885359944       -9.2276111730
 H       -12.9727269785        6.1342662007      -14.9660044798
 H       -13.3890087867        6.2520634284      -13.2823572916
 H       -15.1996032859        5.6106372144      -14.5635933938
 H       -14.7483976885        4.2172424759      -13.4973731178
 H       -17.1656973758        4.2175668937      -19.0164899777
 H       -15.7354009162        4.9538080567      -19.5075543913
 H       -18.2076892607        6.2613269822      -18.0564043267
 H       -17.8622452723        6.2446844210      -19.8434103592
 H       -19.9993686116        9.4652257089      -16.6148730353
 H       -18.9678568837       10.9047983868      -17.2260780446
 H       -18.3501027356        9.4124689030      -16.3804414955
 H       -15.5732060252        9.8306529295      -18.0535046543
 H       -16.8401517308       10.8475002130      -18.0307300919
 H       -15.9477048957       10.6420010086      -19.5574885989
 H       -18.2231525325        8.1761740142      -20.9057632759
 H       -16.5331322642        8.6759649874      -21.1293339282
 H       -17.8567450904        9.8435059296      -20.8567669743
 H       -13.5963947998        5.2542382347      -18.4423886676
 H       -12.4440683843        4.3428012596      -17.4931743300
 H       -13.0819232574        5.7759873939      -16.8012330755
 H       -15.4784039458        2.0320213992      -17.7271011628
 H       -13.7613112746        2.1782384420      -17.6164392552
 H       -14.4901937258        2.9742281397      -18.9480893411
 H       -10.0945272144        6.9884610314      -11.7428021206
 H       -11.7304118350        7.5181786496      -11.8860901393
 H       -10.6554945323        7.1011100257      -13.3657171021
 H       -10.0079975136        3.6315073031      -11.9374045427
 H        -9.4254460864        5.1848721506      -11.1584650149
 H        -9.3060792823        4.9786488307      -12.8466607493
 H       -17.4669950824        2.2715445317      -11.2229784046
 H       -16.3149784412        3.5111419556      -11.6289437014
 H       -17.4006471729        3.9903547363      -10.5697738582
 H       -17.1412088402        3.1575602009       -8.1853284928
 H       -15.6556293861        4.3190057718       -8.1284121267
 H       -15.6386100512        2.7269174571       -7.6106496966
 H       -13.5498068075       -1.6182592511      -14.4386159103
 H       -15.0093909223       -2.6870490654      -13.8216416934
 H       -13.3513527271       -3.2466546443      -14.0367054588
 H       -12.8504205529       -3.7758763776      -11.6395964874
 H       -14.5881296869       -3.8616185283      -11.4557947875
 H       -13.5975048159       -2.8707732842      -10.3628534174
 H        -6.2046342711       -0.1298622541      -13.3044037214
 H        -6.2176442950        0.6482819153      -11.8533589743
 H        -7.8468644913        0.4553435380      -12.6469595418
 H        -6.0458586037       -2.6778279903      -13.0425438735
 H        -6.2002163633       -3.3442720369      -11.4542382863
 H        -5.0130746638       -2.2522981691      -11.8021505934
 H        -4.0924406687       -2.6886700724       -5.7815796488
 H        -3.7644367616       -1.0465247714       -5.4264471555
 H        -2.5192320617       -2.1646742412       -5.5392167472
 H        -1.8147588532        0.2836099210       -7.8839402500
 H        -3.3491033314        0.6144814881       -6.9798614896
 H        -3.4154253567        0.2080235463       -8.6543157345
 H         1.6367726889       -4.6876074490      -11.3913298333
 H         3.1988417040       -5.3054601291      -10.9178192782
 H         2.8930755919       -3.4704940341      -11.2485930623
 H         1.9739433428       -6.4340601058       -8.5164118872
 H         0.7636953691       -5.9159645494       -9.7447202194
 H         0.6358927193       -5.5459891589       -8.0186419786
 H         5.4067674350       -4.8878598061       -4.0926675320
 H         6.4688254719       -6.0601849638       -3.8352372438
 H         5.3170639726       -6.2809657345       -5.2745136333
 H         8.1774338847       -3.0437751769       -5.7161341591
 H         8.5650849393       -3.8876222018       -4.3341588482
 H         6.9957594349       -2.9201942132       -4.4675596495
 H         8.7702268829       -9.5610306302       -9.4886444068
 H         9.5838919593      -11.0380083695       -9.0395902070
 H        10.4507553982       -9.5089223844       -8.7650669616
 H         7.7014577909      -11.1907801611       -6.0387157426
 H         8.6650575969      -11.9604479658       -7.3771627663
 H         7.1690125448      -11.1252359699       -7.7408233367
 H        14.1287311190      -10.1548923933       -1.2490078145
 H        13.7306834020      -10.8977457983       -2.9141405048
 H        12.5887953944      -10.9613973901       -1.5691325873
 H        11.7074735315       -8.8298697415       -0.6393938211
 H        11.4680765968       -7.4363184713       -1.5382915401
 H        13.0614880156       -7.8084744810       -0.7417213332
 H        14.1590995839       -7.3196911045       -7.1248101482
 H        15.9525700105       -7.0731692297       -7.1233472102
 H        15.0906962728       -6.4958916489       -8.3539118727
 H        16.5006450339       -4.9275678111       -5.5750546177
 H        15.7198979693       -3.3566623506       -5.9132114055
 H        16.5367463308       -4.3001345977       -7.2302994398
 Na       11.2112892058       -6.6670815383       -5.9095939699
 Na      -13.6455302078        1.8061068865      -13.4177038597
