232

 C        13.0966778953       -3.1412370865       -6.9343959458
 C        13.1139551108       -4.6584939294       -6.7743978647
 O        12.0281230495       -5.1775953326       -7.0528679687
 C        14.3057824314       -5.4870560989       -6.1903283588
 C        13.9326720805       -5.7947922399       -4.6157606732
 O        12.7163210484       -5.9244277206       -4.4231492796
 C        14.9712457513       -5.9106291434       -3.4273735042
 C        14.5409450706       -7.0193096168       -2.3471621201
 C        14.0817355987       -8.2856952388       -3.0752326138
 O        14.5406685712       -8.7206099159       -4.1098298189
 C        12.7176924230       -9.0290109403       -2.4892450359
 C        11.6094666515       -8.8078936104       -3.5249924369
 O        11.1007478067       -7.7236884407       -3.7741145979
 C        11.0110381975      -10.1041154615       -4.2243476232
 C         9.7777395606       -9.9584668495       -5.0714849513
 C        10.0559583452       -9.5695024973       -6.5152268536
 O        11.0504365547       -9.0315408833       -6.9030041625
 C         8.9361813385       -9.8066937273       -7.5796157030
 C         8.2304110339       -8.4271776061       -7.4902827774
 O         7.2363708099       -8.3286397447       -6.8136803045
 C         8.7966972718       -7.1296421906       -8.3568534139
 C         8.0374348722       -5.8315774508       -7.9870349394
 C         8.1860145133       -5.3628482149       -6.5713141358
 O         9.1212541184       -5.5778901544       -5.8386315935
 C         6.9448256628       -4.4193933655       -5.9818035233
 C         5.9721337999       -3.6814457046       -7.0601180897
 O         6.4819037716       -3.1304146567       -8.0186891221
 C         4.5182315174       -3.5324598950       -6.4507604719
 C         3.3258638544       -3.2015386527       -7.4133844206
 C         3.2737555785       -4.2508096122       -8.4841503241
 O         4.0967365627       -5.1465827416       -8.5178340115
 C         2.0210871019       -4.3727201913       -9.4034400198
 C         1.1776282877       -3.0565166888       -9.5537041687
 O         1.5064918955       -2.0249836464       -9.0136926802
 C        -0.1739274326       -3.1457067374      -10.3752919556
 C        -1.2601323928       -2.1324480569       -9.9720856402
 C        -1.9551549622       -2.4892165550       -8.6512891907
 O        -1.8452403392       -3.6146173227       -8.1323152100
 C        -2.9647339938       -1.4511020601       -7.9833414402
 C        -4.3584843848       -1.7619972041       -8.6462396041
 O        -4.2855188253       -2.1448263494       -9.7932605370
 C        -5.7453370733       -1.7531418266       -7.9091850356
 C        -6.8660642885       -2.2684705696       -8.8809475661
 C        -7.1697761490       -1.1877346571       -9.9287883398
 O        -7.6374989873       -0.1441998066       -9.6165704415
 C        -7.2519156050       -1.5915444051      -11.5306916379
 C        -8.6640045099       -2.1566278729      -11.4517977948
 O        -8.8692429062       -3.1852112412      -10.8198163196
 C        -9.8872855806       -1.2865597333      -11.8248730732
 C       -11.0771352185       -2.1314037430      -12.1936379533
 C       -12.4437996713       -1.2852830042      -12.3042186830
 O       -12.3312008323       -0.1077501656      -12.6877491004
 C       -13.9112786177       -1.8993539987      -12.2074577434
 C       -14.9003351531       -0.7994127008      -11.6096234490
 O       -15.0350602905        0.2327188357      -12.1857553449
 C       -15.6713412210       -1.0756945881      -10.3003081313
 C       -16.3467781523        0.2829572348       -9.8751601047
 C       -15.3298823960        1.3685226577       -9.5148752111
 O       -14.3636303904        1.0446793063       -8.8116927147
 C       -15.6231712002        2.8293575567       -9.7930772185
 C       -14.3397934613        3.5269739518      -10.3136236627
 O       -14.1838833900        3.7951039833      -11.4970954345
 C       -13.1191857768        3.8146137664       -9.3821856108
 C       -11.7390766270        4.0359325548      -10.0454151451
 C       -11.7815112079        5.1744356476      -11.0935281359
 O       -12.3987588223        6.1690039130      -10.8301877132
 C       -10.9419718150        5.1134879081      -12.4834743649
 C       -12.0485882737        4.5335923766      -13.4259639044
 O       -12.0162515207        3.3136586605      -13.6527887194
 C       -13.0106763244        5.3949292190      -14.0292716873
 C       -14.2730027811        4.5478196343      -14.2994673682
 C       -14.3124230444        3.4738381162      -15.4654924796
 O       -14.0520947927        2.3490724209      -15.2055678834
 C       -14.5095786735        3.8716886153      -16.9277197920
 C       -15.9967734032        4.5991997893      -17.2851320007
 O       -16.8362909112        4.5920486300      -16.4579224823
 C       -16.1519208569        5.1674767090      -18.6584980110
 C       -17.1323181050        6.3653429076      -18.5212608663
 C       -16.3912995995        7.8238176436      -18.3120995423
 O       -15.3381066678        7.8709717397      -17.7500744259
 C       -17.3007306854        9.0575778585      -18.5510492255
 C       -18.6334882758        8.6159952204      -17.7476037458
 O       -19.6194941520        8.1518378835      -18.2903542379
 C       -18.5787902089        8.8864133344      -16.2535309059
 C       -16.8029328321       10.4196753321      -18.2370630048
 C       -17.7530117918        8.9671993851      -20.1078707049
 C       -13.2979009647        4.6780958764      -17.3455509051
 C       -14.6545049327        2.6811375511      -17.9458601824
 C       -10.5368415615        6.4679009250      -13.0218407694
 C        -9.6354216420        4.2830703455      -12.3894725188
 C       -16.6713887342        3.2232516803      -10.7878412466
 C       -15.9842305464        3.4067547205       -8.3788239006
 C       -14.3534136734       -2.0096205426      -13.7725895254
 C       -13.9755492416       -3.1685281550      -11.3823111681
 C        -7.1614300845       -0.3512436459      -12.4840801593
 C        -6.3430373349       -2.6968626894      -12.0669236087
 C        -2.9528800908       -1.7853805377       -6.4893007295
 C        -2.7915386905        0.0263602825       -8.1794913551
 C         2.5991366211       -4.7649217982      -10.8587042087
 C         1.1324594265       -5.5630666709       -8.8939937625
 C         6.2211775435       -5.5586267664       -5.1267943109
 C         7.5567534030       -3.4477157119       -4.9861262785
 C         9.5480998166      -10.0163374859       -9.0433524815
 C         7.8967734988      -10.8847047186       -7.2349631606
 C        13.0644427362      -10.5325226552       -2.1790137923
 C        12.2455520686       -8.4120919673       -1.1866918741
 C        14.5593216374       -6.7613093131       -6.9844043455
 C        15.6265578362       -4.6694653107       -6.1321315251
 H        13.0388391356       -2.8695812295       -7.9656026182
 H        14.0102358015       -2.7970664314       -6.5204723425
 H        12.3135430527       -2.5596141372       -6.4819971444
 H        15.2462310487       -5.1105307410       -2.8168416092
 H        15.9487626366       -6.1597316257       -3.7652600789
 H        13.8880241961       -6.5824208637       -1.5394326407
 H        15.4725494772       -7.2538343135       -1.8398205323
 H        10.8137150253      -10.8705880763       -3.4511893283
 H        11.8707252721      -10.5185928725       -4.7833515933
 H         9.1438789882       -9.1332038886       -4.6638114854
 H         9.1092827115      -10.8060728375       -5.0876923314
 H         8.6238159127       -7.3756696540       -9.4408104251
 H         9.9033024240       -6.9601821450       -8.3135023334
 H         6.9793757521       -6.1484792593       -8.2825985097
 H         8.4639026963       -5.0132386188       -8.6175304955
 H         4.6165755271       -2.7816170258       -5.6920037588
 H         4.0872078288       -4.4147911510       -6.0681188907
 H         3.5298105095       -2.2661837810       -7.9264834843
 H         2.3068124429       -3.0609589644       -6.9264727173
 H        -0.7201001913       -4.0974696887      -10.1138977438
 H        -0.0424663637       -3.3171132637      -11.4472047497
 H        -1.8662511031       -2.0524643165      -10.8056205254
 H        -0.7062103472       -1.2139308312       -9.8713847555
 H        -5.9254757181       -0.7240304378       -7.5583947418
 H        -5.8067118174       -2.3591300566       -7.0484992949
 H        -7.8205310787       -2.4209347589       -8.3416629186
 H        -6.5131222473       -3.2698415241       -9.1842054024
 H        -9.5511934778       -0.6179211643      -12.5574883829
 H       -10.0137552150       -0.8255725549      -10.8649717859
 H       -11.3421320734       -2.9889557810      -11.5402745749
 H       -10.8997457040       -2.4960576199      -13.2023841671
 H       -14.9521457675       -1.4399957178       -9.5427026452
 H       -16.5016907728       -1.8185739711      -10.3637232028
 H       -17.0022541345        0.1650670574       -9.0215553431
 H       -16.9635668561        0.5039654153      -10.7901102086
 H       -13.0005525453        2.9562491737       -8.6935020880
 H       -13.3209053294        4.7245753944       -8.9816971154
 H       -11.3995170835        3.1106140514      -10.4485193010
 H       -11.0611134247        4.3028546078       -9.2232490966
 H       -12.5350769824        5.6496095007      -14.9674570685
 H       -13.2789220036        6.3117810244      -13.5243957404
 H       -15.1722133574        5.1465466874      -14.5427875393
 H       -14.4826423183        3.9150312184      -13.4308877662
 H       -16.5799176317        4.3306998442      -19.2500776126
 H       -15.2035430938        5.4782797712      -19.0958295860
 H       -17.8387408903        6.1911098176      -17.7559103713
 H       -17.6540572294        6.5450694986      -19.4561801116
 H       -19.2578802307        8.1881420604      -15.7368177257
 H       -18.8569402197        9.9071520078      -15.9692818112
 H       -17.5526179342        8.8509837841      -15.8362605542
 H       -17.3008236443       10.9434500495      -17.4346701745
 H       -16.7044892504       11.0207966861      -19.2237642897
 H       -15.7838749153       10.3080743970      -17.9065834640
 H       -18.1664502851        8.0118057288      -20.3621155977
 H       -16.8724454106        9.0776560049      -20.6884636761
 H       -18.5794934232        9.6436465297      -20.4554667941
 H       -13.1307884201        5.0591875557      -18.3715732277
 H       -12.3595293980        4.2478151471      -17.0771854824
 H       -13.4838283890        5.5860652067      -16.7524490618
 H       -15.6014470115        2.1937769112      -17.8831064835
 H       -13.8396284525        1.9116920632      -17.9383469415
 H       -14.7429953747        3.0270449012      -18.9761970993
 H        -9.6894139769        6.8310966002      -12.5535595112
 H       -11.4127915382        7.1445113708      -12.8895730338
 H       -10.4247858876        6.3098310533      -14.1204205264
 H        -9.7596940952        3.4572378456      -11.7702303412
 H        -8.9229899669        4.8006484484      -11.7515560929
 H        -9.2752493707        3.9865840440      -13.3989266863
 H       -17.8073190254        3.0413941526      -10.5604775987
 H       -16.4176432265        2.9365625369      -11.8204172704
 H       -16.6922990741        4.2829678835      -10.7544331674
 H       -17.0380767090        3.2408116598       -8.1001230740
 H       -15.8741851792        4.4907337515       -8.3226318397
 H       -15.2311108856        2.9032517568       -7.7312338444
 H       -14.0810037521       -1.0610436132      -14.1737907437
 H       -15.4577133808       -2.1601480476      -14.0088551088
 H       -13.7979029167       -2.8500438456      -14.2390360909
 H       -13.6368125704       -4.0687386013      -11.9756582515
 H       -14.9929581126       -3.3794844552      -11.1323997561
 H       -13.4445567055       -3.0202338570      -10.4557075010
 H        -6.9673128120       -0.6350579623      -13.5357517273
 H        -6.2670332421        0.3025155434      -12.1396490843
 H        -8.0750972760        0.2759733769      -12.4422065019
 H        -6.2683784606       -2.7089555919      -13.1738910814
 H        -6.7016335198       -3.6542983627      -11.8000239256
 H        -5.4126444391       -2.5738915368      -11.5700008681
 H        -3.0797896209       -2.8116451218       -6.3360598840
 H        -3.7435148402       -1.2220290363       -6.0891294010
 H        -2.0725216160       -1.4973174499       -5.9633005389
 H        -2.2149489032        0.6111835065       -7.3542010776
 H        -3.7414279640        0.4314180763       -8.0389254450
 H        -2.6308664527        0.3259403757       -9.1810627708
 H         1.7485431143       -4.8648493197      -11.5283723371
 H         3.2096209060       -5.6775589795      -10.7584667920
 H         3.3310788688       -3.9754657710      -11.1538156957
 H         1.8344800954       -6.1981183616       -8.4233977380
 H         0.6096455583       -6.1922864892       -9.5728595898
 H         0.3717572147       -5.2139907877       -8.2598941711
 H         5.3717907004       -5.0823051032       -4.6536550171
 H         6.9842191421       -5.9819357062       -4.5005293511
 H         5.8038069802       -6.4489176725       -5.6462453532
 H         7.9743550526       -2.5636020551       -5.5311441939
 H         8.2784733869       -3.9653719557       -4.3918427488
 H         6.8021957803       -3.1090708442       -4.2124657243
 H         8.8825686639       -9.5307472673       -9.7763244529
 H         9.5184556294      -11.0574634062       -9.2862833910
 H        10.5289915898       -9.6250773540       -9.0520770688
 H         7.5342099572      -10.6439272396       -6.2298251773
 H         8.2803052167      -11.9188655605       -7.2340115237
 H         7.0188621559      -10.7641919685       -7.8681374114
 H        13.8476796707      -10.6617139972       -1.3926163365
 H        13.4933753299      -11.0519011746       -3.0897649620
 H        12.1866681213      -11.0715388205       -1.8255463345
 H        11.5057726296       -9.0320140846       -0.6797374302
 H        11.9357173281       -7.4046436871       -1.3577550335
 H        13.0999394275       -8.3603931446       -0.4699035230
 H        15.6006004358       -7.0922791061       -7.0755902032
 H        14.1492568533       -6.7249643551       -8.0039283331
 H        14.0649747851       -7.5836811667       -6.4823098714
 H        16.4941882110       -5.2006227784       -5.6850982119
 H        15.4045565645       -3.7905463410       -5.5470853940
 H        15.7999287623       -4.5238733122       -7.1569892299
 Na       11.0400309774       -6.7659336538       -6.0206170826
 Na      -13.8341738138        1.8233187088      -13.1417724109
