232

 C        13.1865217660       -3.1221814508       -6.9230794077
 C        13.0647490152       -4.6217723849       -6.6765409773
 O        12.0774442609       -5.1372094958       -7.0985589931
 C        14.2635144920       -5.4960847962       -6.0884798908
 C        13.8030279359       -5.8780110978       -4.5893337435
 O        12.6238198867       -5.7969113038       -4.3487338740
 C        14.8878672707       -6.0323095678       -3.5267734180
 C        14.5158973227       -7.1236969643       -2.3719033721
 C        14.0400955468       -8.3396168345       -3.0233654812
 O        14.6162881665       -8.8248364943       -3.9512898833
 C        12.7104729818       -9.0231221564       -2.3967939158
 C        11.5644695047       -8.9745196914       -3.5227219591
 O        11.0803760374       -7.9007609918       -3.7789857588
 C        10.9812928066      -10.2047893173       -4.2381040882
 C         9.8110196963       -9.8038984843       -5.1261221154
 C        10.1145866894       -9.4532573462       -6.6479761027
 O        11.1109537749       -8.7803067092       -6.9139442382
 C         8.9714840463       -9.7235801809       -7.6098678972
 C         8.1727706023       -8.2444090371       -7.5459274075
 O         7.2154414350       -8.2596832000       -6.8691861340
 C         8.7081132304       -7.1111081959       -8.3264599769
 C         8.0193305391       -5.7379711153       -8.1654409069
 C         8.1170918051       -5.1662817724       -6.7671018506
 O         9.0940105526       -5.5345484847       -6.0874385397
 C         6.9741690113       -4.4622989686       -5.9406454168
 C         5.9981365926       -3.6077484610       -6.9272715481
 O         6.2869199110       -3.1470763170       -8.0188123473
 C         4.6182567475       -3.5579483183       -6.4387456141
 C         3.4472385618       -3.1335702014       -7.5162451428
 C         3.2780988392       -4.3050216047       -8.5995183814
 O         4.0780284468       -5.2489067997       -8.5479913466
 C         2.1020836060       -4.3934212619       -9.5027835861
 C         1.2724209976       -3.0669693402       -9.5599171914
 O         1.6495664601       -2.0750624624       -9.0401687230
 C        -0.0754378230       -3.2127685403      -10.2390822174
 C        -1.1378995222       -2.0692794354      -10.0070665717
 C        -1.9090236295       -2.4208725083       -8.7350671079
 O        -1.7743369228       -3.5476088741       -8.2820246018
 C        -3.0487555562       -1.4907898876       -8.0058230483
 C        -4.3566270143       -1.8635652887       -8.7097833859
 O        -4.4003553415       -2.0287806013       -9.9482544892
 C        -5.6196656131       -1.8396150887       -7.9342628284
 C        -6.7301199830       -2.2700382900       -8.9093972366
 C        -7.2070498012       -1.1933447511       -9.9525884360
 O        -7.6425291947       -0.1155600383       -9.5504880874
 C        -7.3292249723       -1.6469776728      -11.4878343000
 C        -8.8364104654       -2.2156434833      -11.3494832116
 O        -8.9315043522       -3.3206512804      -10.8990061485
 C       -10.0142841080       -1.2726364829      -11.8496539601
 C       -11.2753567743       -2.0698716116      -12.0781550115
 C       -12.4850980947       -1.2134297836      -12.3282723306
 O       -12.4243235995       -0.0660003212      -12.5895182921
 C       -13.9968729166       -1.8575889887      -12.2110993922
 C       -14.8714524891       -0.7820585721      -11.4648850925
 O       -15.0805852564        0.3060330610      -12.0556727999
 C       -15.5387191491       -0.9688239443      -10.1736875960
 C       -16.3594411303        0.3024359563       -9.9287638193
 C       -15.3309391671        1.3733729080       -9.4485647875
 O       -14.2839980660        1.0127988467       -8.9708408813
 C       -15.5702449878        2.9218726476       -9.7113147081
 C       -14.2693074311        3.4946726746      -10.2788870757
 O       -14.1716651660        3.7118060659      -11.4479347281
 C       -13.0187829432        3.8741465489       -9.3059201442
 C       -11.7347992201        4.0537610449      -10.1398801517
 C       -11.7126744181        5.2649468017      -11.0772325089
 O       -12.2920212467        6.3212501422      -10.8730801107
 C       -10.8872980767        5.0897169800      -12.4887802897
 C       -11.9253763727        4.3115421404      -13.5322207003
 O       -11.9126344816        3.1258080358      -13.6646902350
 C       -13.0643128179        5.2630027841      -14.1134855506
 C       -14.4141121783        4.6912204009      -14.5587586215
 C       -14.3303058292        3.4923602707      -15.5265365504
 O       -14.2322537292        2.2731320533      -15.2648099167
 C       -14.4782062504        3.8717301216      -17.0466373381
 C       -15.8568564136        4.5982889838      -17.3073389242
 O       -16.7049986209        4.6229442002      -16.4280109934
 C       -16.1185414933        5.1822854723      -18.6942482037
 C       -16.9852053129        6.3530219732      -18.5060908913
 C       -16.4218438223        7.7220851759      -18.1538791167
 O       -15.3272031021        7.9149165770      -17.7276759494
 C       -17.3959616652        8.9028473498      -18.5313122022
 C       -18.6689585945        8.6437853544      -17.6585225395
 O       -19.7003064872        8.1149929970      -18.0883806090
 C       -18.4976869616        8.8686539888      -16.1346830281
 C       -16.8317492306       10.2966989374      -18.1039985136
 C       -17.7737294547        9.0910644534      -20.0129423359
 C       -13.2797327597        4.7410341050      -17.4572726467
 C       -14.5065317064        2.5742011971      -18.0003787415
 C       -10.5634948428        6.4971170450      -13.0577989920
 C        -9.5967258116        4.2273530516      -12.3127790110
 C       -16.7309402046        3.0637568242      -10.7802058384
 C       -15.9870575725        3.4656963815       -8.2380685971
 C       -14.5280469104       -1.9929679155      -13.6891595796
 C       -14.0898836371       -3.2489201271      -11.5034314351
 C        -7.1743859775       -0.3765371113      -12.4184749321
 C        -6.3707360516       -2.7663468302      -11.8747005879
 C        -2.9831534806       -1.8550283945       -6.4970684846
 C        -2.7732178231        0.0485221352       -8.3304912094
 C         2.5690577270       -4.8700389785      -10.9439284618
 C         1.1904248573       -5.4465387100       -8.8536842204
 C         6.1751676273       -5.5716044942       -5.1845695310
 C         7.5379655422       -3.4535781409       -4.9523984659
 C         9.5122824433       -9.9240710509       -9.0643383277
 C         7.9552319848      -10.8605843154       -7.1904181170
 C        13.1603296643      -10.4975486391       -2.1381605975
 C        12.2859175195       -8.3519923665       -1.0903542586
 C        14.4085117913       -6.7727081406       -6.9569613812
 C        15.6335483297       -4.5958038104       -6.1240790239
 H        13.0226515116       -2.9043969349       -7.9948706228
 H        14.0952149378       -2.6595900123       -6.5923942800
 H        12.3972276229       -2.6185196005       -6.4945840385
 H        15.0116228855       -5.1567083367       -2.9058255746
 H        15.8971922999       -6.2072001816       -3.8900926053
 H        13.8514623107       -6.6809279520       -1.6498844911
 H        15.4780092394       -7.4295176409       -1.8112332696
 H        10.7619793862      -10.9949612839       -3.5393212824
 H        11.8526188111      -10.5696293745       -4.8374385093
 H         9.3814138732       -8.8117680480       -4.6977576974
 H         9.0060259944      -10.4606365142       -5.1144756762
 H         9.0161563865       -7.3186520163       -9.4124664189
 H         9.6940463671       -7.0113076369       -7.8187546840
 H         7.0733403757       -5.9045579769       -8.5616675231
 H         8.7050955195       -5.0924688599       -8.7872609088
 H         4.6037492833       -2.8344791089       -5.6505000998
 H         4.1405237167       -4.4859217215       -6.0861752620
 H         3.8116148406       -2.1936296848       -7.9981684470
 H         2.4950630132       -2.8692692485       -7.0084535329
 H        -0.5746911504       -4.1324662209      -10.3488589280
 H         0.2848088325       -3.0759643466      -11.2651471138
 H        -1.7015912863       -2.1252955607      -10.9524667003
 H        -0.5603713894       -1.2106153273      -10.0186968388
 H        -5.8036768222       -0.8153332413       -7.5076844986
 H        -5.5756831917       -2.5469750998       -7.0179369068
 H        -7.5874105073       -2.5490202025       -8.4197853951
 H        -6.3200912877       -3.2106529573       -9.3731782105
 H        -9.5462634732       -0.9422973353      -12.7279663900
 H       -10.1064644602       -0.5503203654      -11.1054186047
 H       -11.6262778086       -2.6817807764      -11.1821417096
 H       -11.0638485876       -2.7907367847      -12.9460591102
 H       -14.8081843041       -0.9816396789       -9.3770659540
 H       -16.1673429871       -1.8835360224      -10.1083325852
 H       -17.0463054900        0.1418909771       -9.0614140074
 H       -16.9868319936        0.4685837845      -10.8632732165
 H       -12.8334402587        3.0685412917       -8.6559862703
 H       -13.2366759888        4.8030435579       -8.8412889095
 H       -11.6225594430        3.1758617490      -10.6408481011
 H       -10.8912348991        4.1850421670       -9.4796402991
 H       -12.7037127631        5.9533292238      -14.8581460324
 H       -13.3320528378        5.8736204316      -13.2426843780
 H       -15.2141095607        5.3613820274      -14.9282176842
 H       -14.7572827341        4.1660998742      -13.7008228937
 H       -16.5849252127        4.3511205669      -19.2146888498
 H       -15.1697761983        5.4986486525      -19.1848026972
 H       -17.6089976358        6.1148532604      -17.6256746960
 H       -17.6571519278        6.6116752032      -19.2935302866
 H       -19.0062356775        8.1478922528      -15.5645026685
 H       -18.9088633363        9.8138602718      -15.7960400607
 H       -17.4431006788        8.9999676962      -15.8857131364
 H       -17.4587902561       10.6826854067      -17.2551409376
 H       -16.6295644902       10.9776480801      -18.9055220289
 H       -15.8439121009       10.1443899813      -17.5986344527
 H       -18.1407265610        8.3051543706      -20.6396501637
 H       -16.8809413076        9.5207187257      -20.4906441875
 H       -18.6188340487        9.8419951702      -20.0292627992
 H       -13.1495731309        5.0830144387      -18.5142825133
 H       -12.3239929412        4.2234926278      -17.2541208407
 H       -13.3102774603        5.6830832318      -16.8888941621
 H       -15.4274238270        2.0264620733      -18.0896713689
 H       -13.7354785835        1.9339789011      -17.6838765362
 H       -14.2940321536        2.7825300294      -19.0827219875
 H        -9.6541972324        6.8485952855      -12.5633761866
 H       -11.4049092510        7.1581874716      -12.8850559619
 H       -10.4428438172        6.4062767449      -14.1325310079
 H        -9.8411264883        3.3813986273      -11.6167230877
 H        -8.8496588874        4.7017424844      -11.6761677497
 H        -9.2254793701        3.8539232561      -13.2728825785
 H       -17.5048725501        2.2501851604      -10.6355417227
 H       -16.3105338536        2.9544594603      -11.7322667119
 H       -17.4583364267        3.9039148319      -10.7410726301
 H       -17.0331950263        3.2134423250       -7.9917238329
 H       -16.0131674573        4.6127253648       -8.1426884604
 H       -15.2595883683        3.0146079345       -7.6140145141
 H       -14.2806187851       -1.1627697154      -14.3005769525
 H       -15.6760564109       -2.0437867796      -13.7602739591
 H       -14.1373922305       -2.9346666366      -14.0235245410
 H       -13.7080429430       -4.0235189789      -12.1232142876
 H       -15.1561172537       -3.5362901313      -11.2965080194
 H       -13.5477471456       -3.1778883851      -10.5522546362
 H        -7.2580383817       -0.7787403692      -13.4224017340
 H        -6.2629753445        0.1842914182      -12.3415111361
 H        -8.0774716727        0.2943630799      -12.3236610721
 H        -6.4928742797       -3.0202939100      -12.9838349109
 H        -6.6882733379       -3.7181603211      -11.3828625573
 H        -5.3403177250       -2.5362378765      -11.5724178737
 H        -3.5132539210       -2.8329838585       -6.2474164291
 H        -3.4740411165       -0.9952132935       -6.0014925958
 H        -2.0090919064       -1.9222760689       -6.1094613084
 H        -1.7582701896        0.3537616824       -7.9295342520
 H        -3.4505133181        0.7986309216       -7.8227359307
 H        -2.9006267822        0.2220714807       -9.3670610466
 H         1.7024288687       -4.9627567269      -11.6040678018
 H         3.1510531318       -5.8102967462      -10.7960031469
 H         3.3731806620       -4.1339049861      -11.2609786935
 H         1.7849855354       -6.0829920316       -8.1832237398
 H         0.8301588129       -6.1581720530       -9.5804433203
 H         0.3514115841       -5.0151220321       -8.4424322383
 H         5.6234999425       -5.0441227312       -4.4616861623
 H         6.9520203981       -6.3159300937       -4.8730670232
 H         5.4279928860       -6.1636673062       -5.6693610291
 H         7.8941131669       -2.5974866170       -5.5817931022
 H         8.2452917160       -3.8509390708       -4.1601450209
 H         6.7421939331       -3.1027647725       -4.3335833629
 H         8.8885459023       -9.4062985424       -9.8004591843
 H         9.4977384091      -10.9452412635       -9.2548441508
 H        10.5598464372       -9.5613467657       -9.0978380084
 H         7.5062029861      -10.7007927961       -6.2326572419
 H         8.4341889441      -11.8564600723       -7.2039388438
 H         7.1249776111      -10.8081052872       -7.8888765944
 H        14.0240204586      -10.6085548190       -1.4029468593
 H        13.5764935844      -10.8894216835       -3.0669943972
 H        12.3685663652      -11.1444618149       -1.7808001213
 H        11.5057604702       -8.9905495706       -0.6592904953
 H        12.0411281319       -7.2727711788       -1.1694260526
 H        13.0951201363       -8.4163579476       -0.3600467788
 H        15.4036309747       -6.9869086043       -7.4165266329
 H        13.7064295058       -6.7368271266       -7.8421501630
 H        14.1178279581       -7.6611422192       -6.3794790905
 H        16.4693599255       -5.2294490632       -6.0516358094
 H        15.5950640490       -3.8839435884       -5.2875832298
 H        15.6157455031       -4.1828872775       -7.1562252174
 Na       10.9792795340       -6.8086072357       -5.9551715484
 Na      -13.8103351731        1.8349435801      -13.1129781278
