232

 C        13.2704648871       -3.0031645529       -6.8457539198
 C        13.0386009241       -4.4364076781       -6.7951558132
 O        11.9873777892       -4.9657438092       -7.2213664498
 C        14.1933632355       -5.3907651135       -6.0629463624
 C        13.7640047608       -5.6704068403       -4.5745056138
 O        12.5757686285       -5.7860926090       -4.2083099741
 C        14.8890537846       -6.1590996471       -3.7071232543
 C        14.3511165311       -7.0154025718       -2.5971849025
 C        13.9727388793       -8.4699088479       -2.9618149030
 O        14.6221933488       -9.0453862841       -3.8031615016
 C        12.7697695478       -9.2207644154       -2.2937924283
 C        11.6563623952       -9.0055637213       -3.4335649035
 O        11.1403483728       -7.9066731022       -3.5245294853
 C        11.1624637965      -10.1461375000       -4.4098583213
 C         9.8368313878       -9.8514023452       -5.2116986337
 C        10.0885918427       -9.2913461886       -6.6112490350
 O        11.0992247582       -8.6778507035       -6.9686149384
 C         8.9187431980       -9.4989505969       -7.6578554517
 C         8.1186627713       -8.1393685007       -7.7216235313
 O         7.1381362843       -7.9499107149       -7.0090850920
 C         8.5798901398       -6.9351585076       -8.5804569687
 C         7.7529183744       -5.6046770579       -8.2485404117
 C         8.1371544727       -5.1520638349       -6.8364007990
 O         9.1840942675       -5.2727219106       -6.2643954305
 C         6.9249326048       -4.5970508534       -5.9772657895
 C         5.9059758402       -3.6951053757       -6.8918674681
 O         6.3163319177       -3.2270765227       -7.9327416520
 C         4.5212483685       -3.4369504605       -6.4911221366
 C         3.6366100726       -3.1865994476       -7.7740970422
 C         3.4145047351       -4.4073362231       -8.5292602918
 O         4.2377541001       -5.3049909632       -8.5696522719
 C         2.1329565416       -4.4713023977       -9.4955622689
 C         1.3289154299       -3.0628282525       -9.6651348192
 O         1.7083429446       -1.9384959017       -9.3120107463
 C         0.0928535623       -3.0241389390      -10.5806012916
 C        -0.9480850435       -1.9909385783       -9.8631877034
 C        -1.8158778811       -2.5266880588       -8.8136553155
 O        -1.5712967053       -3.6242362021       -8.3256515764
 C        -2.8750507098       -1.4962993868       -8.1733154731
 C        -4.2649083778       -1.7799625065       -9.0027078019
 O        -4.2390665379       -1.7319489619      -10.2041175950
 C        -5.5154646374       -2.0177841357       -8.0911671298
 C        -6.9336687553       -2.3204232655       -8.6906128963
 C        -7.3601339503       -1.3233983670       -9.7905184139
 O        -7.3733796893       -0.1739010907       -9.5088699597
 C        -7.6597601544       -1.8097055687      -11.4423573668
 C        -9.0745103752       -2.3345883384      -11.4215209727
 O        -9.3654533328       -3.5027267423      -11.1374000031
 C       -10.2081068135       -1.3768319979      -11.9838888523
 C       -11.5298350742       -2.0632701492      -11.6452025730
 C       -12.6990568953       -1.2695952913      -12.2319257427
 O       -12.3982668038       -0.0844772808      -12.4788364983
 C       -14.1804804123       -1.7982477106      -12.2453018365
 C       -15.0015590535       -0.7360811956      -11.4447076453
 O       -15.1664824646        0.3640555642      -11.8600241680
 C       -15.5475395271       -1.0649045691      -10.0747309107
 C       -16.1495919992        0.1861142114       -9.3244910640
 C       -15.1399683649        1.3930054893       -9.3502672001
 O       -13.9659314235        1.1157259076       -9.1041710813
 C       -15.5815866844        2.9287317638       -9.6228220297
 C       -14.2521694985        3.4530620762      -10.2336115128
 O       -14.1184825599        3.3796870753      -11.4712711036
 C       -13.1291630408        4.0336926733       -9.3773911189
 C       -11.8258087974        4.0620468671      -10.2151997889
 C       -11.7068644758        5.2675461505      -11.1883905672
 O       -12.0860519900        6.3667049186      -10.8809487327
 C       -10.9589844815        4.9763768253      -12.5039829430
 C       -11.9776912808        4.1605430391      -13.4533624760
 O       -11.7358990390        2.9578845289      -13.5887800008
 C       -12.9859656591        5.1369460310      -14.0113226374
 C       -14.2334091045        4.6250734922      -14.6678410803
 C       -14.2910804835        3.4486613471      -15.7770688868
 O       -14.5545361617        2.3872623847      -15.3092220347
 C       -14.2128049258        3.6892361591      -17.3456834987
 C       -15.7198518406        4.5197672690      -17.4262658785
 O       -16.3909282713        4.6114927983      -16.4550515948
 C       -16.0077333932        5.2994302666      -18.8501972889
 C       -17.1271938731        6.3450008501      -18.6897723670
 C       -16.6004091093        7.7694079139      -18.1931439711
 O       -15.4460747067        7.7473766282      -17.8101507251
 C       -17.4937545346        8.9974935745      -18.2735555127
 C       -18.6907976277        8.6518629493      -17.3194653826
 O       -19.6643392063        8.1604838586      -17.8105716100
 C       -18.5422939284        8.7660271054      -15.8213582838
 C       -16.7089996968       10.2273391761      -17.6917572462
 C       -17.9307115240        9.2139306141      -19.6991403520
 C       -13.1650746204        4.7533100548      -17.6966465503
 C       -14.1057228351        2.4087505821      -18.0670590009
 C       -10.5521457259        6.3691791895      -13.1623629962
 C        -9.6705598446        4.1782065326      -12.3315688164
 C       -16.8103722044        3.2662022354      -10.5384719035
 C       -15.9284338396        3.6326343215       -8.2512957196
 C       -14.8171926799       -1.8179707674      -13.7060877917
 C       -14.1708135769       -3.2016030150      -11.5606776650
 C        -7.3153058474       -0.4391451320      -12.2178016749
 C        -6.6720660824       -2.9401673677      -11.8423973982
 C        -2.9889161680       -1.7274951631       -6.6620565929
 C        -2.4944360624       -0.0114427741       -8.4912775450
 C         2.4900010257       -4.9399246149      -10.8980500972
 C         1.1791284250       -5.4835863248       -8.7945489853
 C         6.2520922454       -5.7966518217       -5.2258087988
 C         7.5736340584       -3.4878629621       -5.1085130732
 C         9.5942360226       -9.6399905135       -9.0434012310
 C         7.9912432572      -10.7379083380       -7.3405052374
 C        13.1366679473      -10.6594010529       -2.0189465067
 C        12.1131465540       -8.5313460595       -1.0763738861
 C        14.2052515747       -6.7770092191       -6.6526620526
 C        15.6305224332       -4.7543435209       -6.0565982747
 H        13.3316228844       -2.7737998861       -7.9222126338
 H        14.2257984443       -2.6155532617       -6.4086372955
 H        12.3072399280       -2.4299992480       -6.5594964226
 H        15.6497283627       -5.3896508404       -3.2944993948
 H        15.5551931031       -6.8985627313       -4.2291229055
 H        13.4035611509       -6.5184644408       -2.2767096186
 H        14.9824473661       -7.1635941197       -1.7801597595
 H        11.1453977678      -11.0908094974       -3.8316554093
 H        11.9274253309      -10.2565760153       -5.1568325413
 H         9.2188675112       -9.1148182416       -4.7885204325
 H         9.1758831390      -10.7559911245       -5.3655708244
 H         8.4146091225       -7.1482955795       -9.5875592909
 H         9.6317790438       -6.7250832523       -8.4658044734
 H         6.6810692745       -5.9429527653       -8.3616825273
 H         8.1661894371       -4.9262192044       -8.9179923941
 H         4.2144715613       -2.5156888903       -5.9235170339
 H         4.1073171622       -4.2986754208       -5.9740843587
 H         4.1685419095       -2.4392494285       -8.3300318490
 H         2.6801513231       -2.7509688596       -7.5024732594
 H        -0.4677241111       -3.9713876311      -10.7597969377
 H         0.4119882659       -2.7165937706      -11.5715874885
 H        -1.5081117149       -1.5700821085      -10.6943330166
 H        -0.1871776294       -1.2125565811       -9.4642700940
 H        -5.7717984221       -1.1407034791       -7.4931119855
 H        -5.1976532552       -2.7593365232       -7.4111966967
 H        -7.7249891487       -2.3313969656       -7.8506392214
 H        -6.9074927136       -3.2894921330       -9.1290212366
 H        -9.9383152730       -1.3954964954      -13.0915119283
 H       -10.0667065569       -0.3656022180      -11.4500970058
 H       -11.6558677371       -2.1108217737      -10.5638575641
 H       -11.4480927735       -3.0454101132      -12.0388395722
 H       -14.7434054871       -1.3362401991       -9.3759085975
 H       -16.2511154906       -1.8730255642      -10.1325689000
 H       -16.3724956390       -0.0567314481       -8.2955844845
 H       -17.0782946878        0.4982867297       -9.7596680753
 H       -13.0534151764        3.4364261359       -8.3611293134
 H       -13.5003559074        5.1027360813       -9.2645874964
 H       -11.8348524149        3.0224700854      -10.7474951624
 H       -10.9039858702        4.1528974773       -9.5771744851
 H       -12.6264768501        5.8593081418      -14.7608120296
 H       -13.2957959999        5.7011855648      -13.1127069283
 H       -14.7051458027        5.4467712839      -15.2083658710
 H       -15.0775058256        4.2819298468      -14.0208738232
 H       -16.3681472732        4.4835219185      -19.5176799254
 H       -15.1238852194        5.8068398350      -19.2398856780
 H       -17.9516681790        5.9490379747      -18.0499347680
 H       -17.5894055569        6.6165088929      -19.6848467857
 H       -19.1509732892        7.9334804648      -15.4097809876
 H       -19.0617340660        9.5931963059      -15.3246727355
 H       -17.4896788853        8.8051564170      -15.5730880167
 H       -17.4615298473       10.9282185679      -17.5161510283
 H       -16.0150078062       10.5067379867      -18.5277796867
 H       -16.1387234022       10.2291508497      -16.8068562401
 H       -18.5147935996        8.2889699651      -19.9284430825
 H       -17.1884514501        9.3320380398      -20.4796915316
 H       -18.6841912265       10.0046605927      -19.7562024107
 H       -13.0508913626        4.7543950695      -18.7733749654
 H       -12.1536007850        4.4905195812      -17.3928353610
 H       -13.3885991597        5.7960151810      -17.4853555043
 H       -14.9835359635        1.7564130552      -17.9315608095
 H       -13.1924004455        1.8217323893      -17.7763065158
 H       -14.0097381230        2.5747588816      -19.1083960734
 H        -9.8445768577        6.7972754449      -12.5004112414
 H       -11.4455218981        6.9771619216      -13.3314056951
 H       -10.1179670699        6.1885180724      -14.1481287098
 H        -9.8328088917        3.1317757889      -12.2183793742
 H        -9.0872718479        4.4761804855      -11.4374648748
 H        -9.0604414957        4.3717626683      -13.2370058202
 H       -17.8795445305        3.0738456765      -10.1104675444
 H       -16.7297747089        2.7112137814      -11.4954239041
 H       -16.7846431531        4.2917411160      -10.7402255430
 H       -16.7056212666        3.1103152899       -7.7315422032
 H       -16.3196583657        4.5693466249       -8.3700330916
 H       -14.9870483505        3.5604640118       -7.6835427465
 H       -15.0204997433       -0.7780287176      -13.9761301083
 H       -15.8256750219       -2.1335268474      -13.6639288697
 H       -14.1867179315       -2.3702838934      -14.4273498473
 H       -13.3642536623       -3.7764434926      -12.1108492658
 H       -15.0783728633       -3.6570754421      -11.8586458322
 H       -13.9379900993       -3.3047684316      -10.5084218362
 H        -7.9562707413       -0.3227431602      -13.0532766104
 H        -6.2727800015       -0.5687734785      -12.5171472958
 H        -7.3685814303        0.4156812585      -11.6400484136
 H        -7.1246601643       -3.3712496688      -12.7285076189
 H        -6.7209025423       -3.7965532018      -11.1615722440
 H        -5.6287061458       -2.6521329051      -12.0262866290
 H        -3.3927122836       -2.7206003135       -6.5047650947
 H        -3.4341410936       -0.9509936118       -5.9923323973
 H        -1.8817276641       -1.8610987680       -6.3615855513
 H        -1.3667145222        0.1176133201       -8.5473854776
 H        -2.8240946258        0.5784889508       -7.6790787645
 H        -2.8884615652        0.4579326272       -9.4245012649
 H         1.5560378518       -5.1928969755      -11.3907728452
 H         3.1335988744       -5.7796835861      -10.7850553525
 H         3.0482735281       -4.2035181715      -11.3984520747
 H         1.7414157851       -6.3798345226       -8.4821453421
 H         0.3715760467       -5.9042231859       -9.4702437456
 H         0.6452387296       -4.9232840707       -7.9478464448
 H         5.4499417657       -5.5105787869       -4.5426946277
 H         7.0234451198       -6.4200781527       -4.9086008367
 H         5.6704356149       -6.3828194076       -5.9653345356
 H         8.1598918764       -2.7613218630       -5.6454287108
 H         8.1032429172       -4.0243753232       -4.3960508782
 H         6.8595018913       -2.9677423361       -4.4220259764
 H         8.7558820794       -9.8506858040       -9.7444937175
 H        10.3492201552      -10.4901716437       -8.9556261026
 H        10.1105620449       -8.7627477718       -9.4135109054
 H         7.1195249146      -10.5538548353       -6.7069036410
 H         8.5957120663      -11.4869225484       -6.8772347309
 H         7.6101548565      -11.1174075997       -8.2752200103
 H        13.8838545265      -10.6615936705       -1.2917002661
 H        13.5447613749      -11.2585112395       -2.8200442366
 H        12.2974053118      -11.1498766871       -1.5536708771
 H        11.3755941572       -9.2512300001       -0.7226855061
 H        11.7014550584       -7.5843996704       -1.3459452928
 H        12.8384607166       -8.2798179888       -0.2790504534
 H        14.6144981949       -6.7680831389       -7.6679705448
 H        13.2162580061       -7.1490206524       -6.8684812929
 H        14.7086498201       -7.5129986392       -5.9949634863
 H        16.2889904619       -5.5918314191       -5.6810694150
 H        15.5523954396       -3.9612821344       -5.3297500453
 H        15.9069382588       -4.4205678045       -7.0305515527
 Na       10.9906096259       -6.6437203167       -5.6161806173
 Na      -13.6972858126        1.8679123881      -13.0896213910
