232

 C        13.4513652092       -2.9154966293       -6.8388174646
 C        13.1588341606       -4.3620573194       -6.6465263880
 O        12.0006496183       -4.7618663450       -6.8148397777
 C        14.2119548277       -5.4639267742       -6.1518545317
 C        13.8788364353       -5.6554659103       -4.6164929743
 O        12.8097800268       -5.1779303516       -4.2600768951
 C        14.8202891566       -6.3308047198       -3.5965815416
 C        14.0389154601       -7.1080612071       -2.4871022018
 C        13.8170715023       -8.5694034708       -2.8705855739
 O        14.6095825590       -9.1868934614       -3.5222873525
 C        12.5245078714       -9.2842061786       -2.4015660121
 C        11.4477338678       -8.8805051995       -3.4837842326
 O        10.8896691745       -7.8158921513       -3.5311205806
 C        11.4607430419       -9.9065975598       -4.6314192511
 C        10.1497072150       -9.9884147327       -5.5229396313
 C        10.0056208056       -8.9956440797       -6.7173510348
 O        10.6054930083       -7.9510195234       -6.8376749275
 C         9.0602924130       -9.3258680050       -7.8831960519
 C         8.0772369154       -8.0556030965       -7.8484846284
 O         7.2541142323       -8.0005035050       -6.9782851198
 C         8.4466294369       -6.8598447960       -8.7078059315
 C         7.6146786478       -5.6532504427       -8.3082210364
 C         7.9989372124       -5.1608876161       -6.9136672744
 O         9.0025181692       -5.5505694341       -6.3866610842
 C         6.9065346094       -4.4883546357       -6.0324118510
 C         5.9284469545       -3.5512447003       -6.7944285204
 O         6.3049931822       -2.9313033931       -7.7811757816
 C         4.4244898983       -3.4132978098       -6.4533421872
 C         3.5532088702       -3.1564702424       -7.7120412663
 C         3.4790322240       -4.3305687677       -8.6992729457
 O         4.3757266134       -5.1852055340       -8.7041942726
 C         2.1228373214       -4.4182413008       -9.4899270537
 C         1.4695638524       -3.0437674621      -10.0707880971
 O         1.9649657170       -1.9812596293       -9.9329590600
 C         0.0658404770       -3.2002587480      -10.8266154617
 C        -0.9648822394       -1.9787430549      -10.4191970067
 C        -1.6764843471       -2.3393411276       -9.0992490782
 O        -1.5591578897       -3.4560180049       -8.5494584195
 C        -2.7901097657       -1.3955845302       -8.4148437200
 C        -4.1715066478       -1.7558768477       -9.0061002186
 O        -4.2366935640       -1.5136814323      -10.2229102795
 C        -5.3593865929       -2.2112705006       -8.1736166132
 C        -6.4895231341       -2.8396524628       -9.1583389485
 C        -7.2007689928       -1.6988861140       -9.9949215930
 O        -7.3374765376       -0.6111871187       -9.5226198454
 C        -7.8044090652       -2.0670344641      -11.5029597511
 C        -9.2860297663       -2.4667897475      -11.2113477534
 O        -9.5266870200       -3.6053301305      -10.8591567071
 C       -10.4115772836       -1.4154030677      -11.4067858869
 C       -11.8820845280       -1.9797417844      -11.2086193678
 C       -12.9217112185       -1.2136234446      -12.0755147744
 O       -12.5244386547       -0.1596825946      -12.5712008340
 C       -14.4806890248       -1.4851465440      -12.0780235819
 C       -15.2008616739       -0.4209487048      -11.2362111020
 O       -15.5109183711        0.6247620617      -11.6501972223
 C       -15.5749747574       -0.9268453440       -9.8180431085
 C       -15.8860222429        0.2286205386       -8.7899317167
 C       -14.8699296813        1.3256231923       -9.0234584817
 O       -13.6905542555        1.0298557939       -9.0285715915
 C       -15.3856133877        2.8355098638       -9.4370657740
 C       -14.2228683443        3.5187576228      -10.3115521665
 O       -14.1861800801        3.4144034232      -11.5299695598
 C       -13.1282170260        4.1567363194       -9.5317514943
 C       -11.8927418369        4.1722713584      -10.3966174536
 C       -11.6517404454        5.3510981600      -11.2996618001
 O       -12.0842503267        6.4433558974      -11.1363770499
 C       -10.6052758790        4.9622942496      -12.5835625596
 C       -11.8431995772        4.2721400024      -13.4826643579
 O       -12.1283394697        3.0926193468      -13.2867500226
 C       -12.5855008481        5.2192178959      -14.3888384823
 C       -13.9546102462        4.6081628711      -14.7968363916
 C       -14.0127198968        3.4513429323      -15.9311281429
 O       -13.8938362123        2.3137295332      -15.6097222980
 C       -14.2775335188        3.9071677322      -17.3604907289
 C       -15.7415925668        4.6187868400      -17.5770495171
 O       -16.5949324417        4.4255298732      -16.7711504957
 C       -15.7795131310        5.3040041864      -19.0437318815
 C       -16.9453291689        6.3564608267      -19.0325593689
 C       -16.5806135004        7.4798771923      -18.0480488232
 O       -15.4592308176        7.4487347127      -17.6548789379
 C       -17.4132787115        8.7114878804      -17.6705570735
 C       -18.6296104303        8.3704448488      -16.8529027290
 O       -19.7429910415        7.9859362782      -17.2762715511
 C       -18.4719574414        8.5876337069      -15.3134126607
 C       -16.6629381806        9.9007393464      -17.1276259514
 C       -18.0081339195        9.0934760887      -19.1248429847
 C       -13.1350076514        4.8552272038      -17.8144526823
 C       -14.3161650798        2.7104337383      -18.3703617552
 C        -9.9394426707        6.2866709379      -13.0300139074
 C        -9.6630052294        3.7777640516      -12.4296134834
 C       -16.7160454235        2.8416559219      -10.1427039512
 C       -15.5898426112        3.6248839919       -8.0968706436
 C       -15.0913243809       -1.3865413411      -13.5411781462
 C       -14.7582996663       -2.8369121747      -11.5058785476
 C        -7.6156183954       -0.7779499038      -12.3640708383
 C        -6.9009760932       -3.2540741094      -12.1847531276
 C        -2.6142203049       -1.6506795896       -6.8415930423
 C        -2.5271348070        0.1071384124       -8.6333037303
 C         2.4930847299       -5.1990210621      -10.7519324332
 C         1.1328776474       -5.2773074131       -8.6190395083
 C         6.1863958180       -5.7495963265       -5.3214168432
 C         7.6722729055       -3.6449152503       -5.0381706703
 C         9.9740976213       -9.4537347967       -9.1404665871
 C         8.3121402426      -10.6769801815       -7.5930589022
 C        12.7611296244      -10.8653874908       -2.2666701467
 C        11.9170928361       -8.9130539663       -0.9525962600
 C        14.0634964213       -6.8677638800       -6.8773221992
 C        15.7081397229       -4.9445686944       -6.1702657630
 H        14.5261992192       -2.8387772869       -6.9921231001
 H        13.3710751794       -2.3558725214       -5.9304163143
 H        12.9114249519       -2.5135249298       -7.6934367433
 H        15.4458472349       -5.6705190791       -2.8971123738
 H        15.4101650712       -7.1967189950       -4.0910777410
 H        13.1153597782       -6.5106208464       -2.2450621095
 H        14.6915080957       -7.2367787858       -1.6711633573
 H        11.5875454049      -10.9306193028       -4.2561794110
 H        12.3789359709       -9.6412899916       -5.1339270780
 H         9.2535423169       -9.8429812955       -4.9182797736
 H        10.1329734045      -11.0207754089       -6.0097427679
 H         8.4245789472       -7.0624941318       -9.7490262860
 H         9.4569947904       -6.5199989363       -8.4323027588
 H         6.5480003982       -5.9149998120       -8.4355610373
 H         8.0253626136       -4.9448429479       -8.9561532382
 H         4.4472113029       -2.5142359432       -5.7509659975
 H         3.8323148188       -4.1055541126       -5.8397663179
 H         4.1254800789       -2.4951270097       -8.3342509446
 H         2.5611463844       -2.7070466934       -7.5289543230
 H        -0.4692588633       -4.1590868351      -10.7135905496
 H         0.3320231409       -3.0732149217      -11.8274249228
 H        -1.7102151109       -1.9893892632      -11.2131708107
 H        -0.2548676472       -1.0557599411      -10.5169873403
 H        -5.6716950055       -1.2399028763       -7.6324505656
 H        -5.1333290002       -2.9759739200       -7.4073139636
 H        -7.2719497222       -3.3671471060       -8.5955568430
 H        -5.8933621928       -3.6048499749       -9.6565802973
 H       -10.3523008515       -1.0697006340      -12.4962114962
 H       -10.1717876970       -0.5127211395      -10.7281922157
 H       -12.1010565873       -1.7041315360      -10.1474947411
 H       -12.0230467656       -3.0313735012      -11.4443406605
 H       -14.8216609748       -1.5475534923       -9.3438371545
 H       -16.5032676278       -1.4383563354       -9.8496574416
 H       -15.8416941654       -0.0880987953       -7.7636571723
 H       -16.9464134237        0.5052058817       -8.8292606815
 H       -12.9930974266        3.5723502377       -8.4881720834
 H       -13.3864179101        5.1943038406       -9.1698651126
 H       -11.8577836696        3.2454269058      -11.0112034726
 H       -10.9970212620        4.0925228000       -9.6965379990
 H       -11.9333177163        5.5531314006      -15.2259035091
 H       -12.9253722274        6.1636609978      -13.9324428606
 H       -14.5629656026        5.4753445620      -15.0588933230
 H       -14.5285779171        4.2288782475      -13.9380507879
 H       -15.9813184786        4.6441063611      -19.9245131902
 H       -14.8630453215        5.8646396355      -19.0556781724
 H       -18.0249686351        6.1158954971      -18.9500845455
 H       -16.9152615795        6.8052695341      -20.0820225104
 H       -19.3916110347        8.3974472462      -14.8268205057
 H       -18.3424663030        9.5704485778      -14.9756077098
 H       -17.6817143566        7.9338416160      -14.9915263126
 H       -17.3799213750       10.6792086920      -16.8888273471
 H       -16.0045724846       10.2212931755      -18.0389844760
 H       -16.0085257090        9.6849876259      -16.2882800325
 H       -18.5967690695        8.2776428182      -19.5453731269
 H       -17.2497274372        9.3150878133      -19.8603331695
 H       -18.5185940213       10.0949385885      -19.1156708790
 H       -13.1250566334        5.0415651331      -18.9017181762
 H       -12.1370782154        4.6818442390      -17.4323270572
 H       -13.2951599498        5.8680980938      -17.3993938732
 H       -15.1702266436        2.1162917656      -18.2732570326
 H       -13.5461224258        1.9581771634      -18.1573569315
 H       -14.1364486658        3.0590509830      -19.3549114391
 H        -8.9830084250        6.3615881036      -12.6269319379
 H       -10.6276399819        7.0892837215      -12.6526325555
 H        -9.8526856003        6.3458534233      -14.1365769929
 H       -10.2517199040        2.9159624358      -12.1874471234
 H        -8.7991473050        3.9762536892      -11.7514553955
 H        -9.1276873153        3.4539822034      -13.3783693068
 H       -17.4534737936        2.2787287491       -9.4389406708
 H       -16.8473754323        2.3588459313      -11.0574620880
 H       -16.9755003908        3.8412118568      -10.2207124473
 H       -16.5313937227        3.3260355504       -7.5888430668
 H       -15.5588375582        4.6891571042       -8.3100780487
 H       -14.7503711651        3.3069760389       -7.4125522560
 H       -14.9556681786       -0.4252845324      -13.9175601047
 H       -16.2026238923       -1.4606935207      -13.5341369785
 H       -14.5877293431       -2.0656816573      -14.2402458074
 H       -14.1609259291       -3.5833147935      -12.1253554543
 H       -15.7861708282       -3.0276567919      -11.5933940906
 H       -14.3611234594       -2.9083563098      -10.5104723606
 H        -7.4330088026       -0.9473270217      -13.3986999980
 H        -6.7788574882       -0.3202405123      -11.8134001234
 H        -8.4017670021       -0.0964883595      -12.1934380856
 H        -7.2724491609       -3.5237415024      -13.2425409209
 H        -6.9404223412       -4.1285875140      -11.4729874089
 H        -5.8474587566       -2.8661080205      -12.3733668434
 H        -3.0401697713       -2.6344598311       -6.5216879694
 H        -3.2939110454       -0.8871701651       -6.3518217647
 H        -1.5492891109       -1.4794321643       -6.5432429724
 H        -1.4774734452        0.5675529497       -8.2812921450
 H        -3.3792569720        0.4994402092       -8.1710747051
 H        -2.4751865185        0.3842869391       -9.6683722267
 H         1.5669793763       -5.3473517516      -11.3483936012
 H         2.9336002405       -6.1826396896      -10.4510624490
 H         3.1814848580       -4.5845294386      -11.3966124172
 H         0.9190204521       -6.3168465206       -8.9569543127
 H         0.1717120798       -4.7045962275       -8.6677475566
 H         1.6111011848       -5.3601722242       -7.6609484174
 H         5.7374377398       -5.4199727759       -4.3612920268
 H         6.8382646189       -6.5592666253       -5.1118867509
 H         5.3208791791       -6.0078678989       -5.9761233596
 H         8.0568671553       -2.7551262800       -5.6006287750
 H         8.5113509191       -4.1621937111       -4.6369671488
 H         7.0898908710       -3.2450261009       -4.1531607565
 H         9.3864461194       -9.1042957665      -10.0321893602
 H        10.3192284934      -10.4828101084       -9.3203284647
 H        10.8028034853       -8.7684087792       -9.1142063692
 H         8.0931121309      -10.6766302141       -6.5214764490
 H         8.9103293668      -11.5519553338       -7.8360852008
 H         7.3320709353      -10.7557087819       -8.0533696887
 H        13.2347648594      -11.1381828907       -1.3299619265
 H        13.4013458094      -11.2665417722       -3.0813761990
 H        11.8693323669      -11.4617018449       -2.3734040418
 H        11.0258490350       -9.5354000340       -0.8704245399
 H        11.5078794630       -7.9300601436       -1.0169857941
 H        12.6798123508       -8.9679969831       -0.1237634870
 H        13.7347814612       -6.6466311659       -7.9144498347
 H        13.2638224171       -7.5445991462       -6.5018335577
 H        14.9821556182       -7.4746772725       -6.7721927457
 H        16.2880858560       -5.8530033734       -5.9063168732
 H        15.7109008492       -4.1105977883       -5.4964608253
 H        15.9254787229       -4.5749371865       -7.1250135081
 Na       10.8844484074       -6.2413945800       -5.2531520344
 Na      -14.2093092053        1.6025406310      -13.3460807141
