232

 C        13.6034206409       -2.9070414933       -6.8715269161
 C        13.2265786257       -4.3347813503       -6.7328111883
 O        12.0622495316       -4.6043554346       -6.7908339551
 C        14.2107015249       -5.4954682388       -6.0634099538
 C        13.8040219020       -5.7041619608       -4.6119078854
 O        12.8250589677       -5.1741219158       -4.1304012132
 C        14.7777224585       -6.4580311423       -3.7132151458
 C        14.0177379280       -7.1115625194       -2.5016297031
 C        13.8205289894       -8.6141970645       -2.7842470362
 O        14.6094950721       -9.1964953764       -3.5223476765
 C        12.4132816767       -9.2895818558       -2.4349075982
 C        11.4714720193       -8.9205494624       -3.6021742926
 O        10.8680714073       -7.8613163049       -3.4234156845
 C        11.4537333589       -9.8025718933       -4.8148095209
 C        10.1773951729       -9.9485891024       -5.5828087634
 C        10.1156200024       -8.9364676631       -6.7541792519
 O        10.5682988034       -7.8197236183       -6.7318152829
 C         9.1235207999       -9.3411303225       -7.9773097717
 C         8.1122800478       -8.0868825556       -7.8384234454
 O         7.2330747775       -8.0989844827       -7.0235696338
 C         8.4828715213       -6.9111782427       -8.7716905875
 C         7.6056263135       -5.6544906158       -8.3587548291
 C         7.9201442479       -5.2442779526       -6.9462360049
 O         8.9597051247       -5.5970514860       -6.3384878902
 C         6.7589970842       -4.5467556197       -6.0904099856
 C         5.8444007198       -3.5291251595       -6.8012479063
 O         6.2474781719       -2.7634396704       -7.6392453993
 C         4.3642788788       -3.3607444361       -6.4084138448
 C         3.5496637361       -3.0193075906       -7.6853059942
 C         3.4486988517       -4.1810203484       -8.6972991651
 O         4.2288866964       -5.0958751161       -8.8223470664
 C         2.1084785039       -4.4128845852       -9.5564985198
 C         1.4070230990       -3.1119083662      -10.1135102275
 O         2.0429999758       -2.0801291412       -9.9823080171
 C         0.0350981907       -3.1729260354      -10.7589876614
 C        -0.9553625315       -2.0613642357      -10.4398418338
 C        -1.6921835593       -2.3656776198       -9.1351285117
 O        -1.5388407366       -3.4371176479       -8.6257402492
 C        -2.7107068701       -1.3283199941       -8.4169289027
 C        -4.1420462374       -1.7277534781       -9.1177010475
 O        -4.2799264324       -1.5773945591      -10.3231459902
 C        -5.3287667724       -2.2401897786       -8.3517954733
 C        -6.4213046775       -2.9493720594       -9.1865603015
 C        -7.1285948566       -1.9388378137      -10.0587372608
 O        -7.4390316981       -0.8267266931       -9.6228493857
 C        -7.7134999957       -2.1408255487      -11.4943240849
 C        -9.3078755430       -2.4665128331      -11.1612354977
 O        -9.5088635310       -3.5550795585      -10.7102698330
 C       -10.4899524433       -1.4298001564      -11.2225333560
 C       -11.8863028811       -1.9631618779      -11.1960054888
 C       -12.9068947630       -1.0868534477      -11.9844875900
 O       -12.5905731720       -0.0711666198      -12.5994387070
 C       -14.4824348318       -1.5679955075      -12.0524424394
 C       -15.1836277537       -0.4453420822      -11.1614860021
 O       -15.4805329498        0.6426698370      -11.6396904152
 C       -15.5475737552       -0.8984877793       -9.7787378702
 C       -15.8828583797        0.1820552481       -8.7582293201
 C       -14.8542220756        1.3462683484       -9.0361661205
 O       -13.6694867898        1.0921068376       -8.9618352298
 C       -15.3690572355        2.8022586626       -9.3260375266
 C       -14.2798000745        3.4106915526      -10.2556398634
 O       -14.3893636837        3.3883191662      -11.4473863267
 C       -13.0745461590        4.1283061681       -9.5936183594
 C       -11.7841727093        4.1307788472      -10.3671824491
 C       -11.5670441328        5.2642872333      -11.2640783727
 O       -12.0375393861        6.4021722641      -11.3393922958
 C       -10.6973972572        4.8727945289      -12.5623610417
 C       -11.8559029012        4.3495663961      -13.4437953185
 O       -12.1814803571        3.1827850475      -13.2288619475
 C       -12.5100099582        5.2584141566      -14.4333936172
 C       -13.9786924086        4.7027516796      -14.9532087024
 C       -13.8947819822        3.5270103597      -16.0358296457
 O       -13.8329558322        2.3634378118      -15.5951620047
 C       -14.2796643965        3.9122319763      -17.4432464130
 C       -15.7177392483        4.5930518160      -17.6679653100
 O       -16.6025426455        4.5083044423      -16.8289026782
 C       -15.9383665852        5.2207725821      -18.9669431527
 C       -16.9157349163        6.4022766560      -18.9761264952
 C       -16.4149443747        7.4701536944      -17.9401023419
 O       -15.3676177983        7.3325316002      -17.3585648026
 C       -17.3989855044        8.7193205553      -17.6779433153
 C       -18.6554469673        8.2451823980      -16.7141336228
 O       -19.6903074208        7.8226053226      -17.1673215675
 C       -18.5063798005        8.4087513275      -15.1137406158
 C       -16.6300748086        9.9265453537      -17.1303784673
 C       -18.0160277590        9.1291067359      -19.0826783675
 C       -13.1916675428        4.9775493320      -18.0071710781
 C       -14.2302514319        2.6769521900      -18.4520407508
 C       -10.0066222248        6.0291671532      -13.2468432384
 C        -9.5935324807        3.8050192648      -12.3598745508
 C       -16.6971305082        2.9938549243      -10.1444780157
 C       -15.4232761935        3.7330018845       -7.9686389504
 C       -15.1770848538       -1.4059623258      -13.3866805258
 C       -14.7496086113       -3.0613821808      -11.5852000467
 C        -7.6604799788       -0.7981608647      -12.3343880954
 C        -7.1506796582       -3.2659819026      -12.3314102270
 C        -2.5687308153       -1.5573253640       -6.9142342997
 C        -2.4402180037        0.1800349580       -8.6748561915
 C         2.4998371450       -5.3894630311      -10.9133170053
 C         1.2151937569       -5.1211440721       -8.5034100864
 C         6.1209644737       -5.6445005688       -5.3437402865
 C         7.6938186212       -3.6029704496       -5.0387760536
 C         9.8962319806       -9.3355763822       -9.2979972789
 C         8.3882450402      -10.6902076263       -7.6708274407
 C        12.8278383432      -10.7742490381       -2.2201185921
 C        11.7659458052       -8.8585278264       -1.0942168404
 C        14.0542694304       -6.9091523078       -6.7632178372
 C        15.7685599489       -4.9726088855       -6.0857672402
 H        14.7047455700       -2.5658783152       -6.8343096406
 H        13.1744280418       -2.3448910047       -6.0021075464
 H        13.1516094901       -2.6330761175       -7.8338216939
 H        15.4767248354       -5.8344100047       -3.1418287151
 H        15.2378174333       -7.3406238269       -4.2689892147
 H        13.0605604845       -6.6288335437       -2.5359861382
 H        14.5507993665       -6.9035477953       -1.5880063501
 H        11.5515899545      -10.7866701934       -4.3901134121
 H        12.3561300843       -9.6158288136       -5.4181289610
 H         9.2614297015       -9.8977312598       -4.9514823342
 H        10.2388160205      -10.8589971108       -6.0521012272
 H         8.3070051806       -7.2209815958       -9.7747234937
 H         9.5011394938       -6.6714114002       -8.6469883374
 H         6.6044841369       -6.0622989499       -8.3788037976
 H         7.8406992215       -4.7798996638       -9.0782590393
 H         4.3255006266       -2.6143795798       -5.6081981451
 H         3.8726744936       -4.2362096226       -5.8755510508
 H         4.1772887185       -2.3448905401       -8.2104767719
 H         2.5426357716       -2.6079658543       -7.5569881959
 H        -0.5056941159       -4.1282895423      -10.5997820726
 H         0.3192649407       -3.0564759562      -11.8263053030
 H        -1.5206441630       -1.9570650655      -11.3956136173
 H        -0.3150168926       -1.1513134821      -10.2561953370
 H        -5.7339832314       -1.3541070082       -7.9088580235
 H        -5.1258974645       -2.9294429116       -7.5664586080
 H        -7.1526283982       -3.3631997785       -8.4706114877
 H        -5.8738916932       -3.8736647878       -9.6783682776
 H       -10.4912696299       -0.8043688309      -12.2080597315
 H       -10.3076420873       -0.6827852828      -10.3833246910
 H       -12.1403024320       -2.0334439649      -10.1567752591
 H       -11.9940767499       -2.8761674604      -11.7391129055
 H       -14.6800488813       -1.3747380825       -9.3765027938
 H       -16.3939250791       -1.5979438848       -9.7426912456
 H       -15.7623062117       -0.2005958563       -7.8048337361
 H       -16.9434174991        0.4437882009       -8.7360901188
 H       -12.8602735387        3.6709038781       -8.5701733156
 H       -13.3820137748        5.1865924985       -9.2859681619
 H       -11.7859417091        3.2602230584      -11.0489186929
 H       -10.8639027872        3.9478062954       -9.6285853917
 H       -11.7948034665        5.6007500342      -15.1989056436
 H       -12.8278282188        6.1944621659      -13.9448071247
 H       -14.4593167132        5.6111257698      -15.4271321507
 H       -14.7172296019        4.4652596237      -14.1712869474
 H       -16.3796934996        4.3929723843      -19.5452105595
 H       -14.9417597976        5.5602026949      -19.3012982983
 H       -17.9633055453        6.2658220234      -18.6380956009
 H       -17.0931473239        6.8494651340      -20.0077311918
 H       -19.3861410447        8.2515667806      -14.5249380776
 H       -18.3330020697        9.4494623290      -14.8908403549
 H       -17.6536635804        7.7810719799      -14.7794531659
 H       -17.0660225456       10.4185689699      -16.2325174791
 H       -16.4368535125       10.6435706009      -17.8925052508
 H       -15.6873700491        9.4596321451      -16.8456967532
 H       -18.5647101763        8.4013691968      -19.6285888324
 H       -17.3009898770        9.5700330223      -19.7665782526
 H       -18.5803180470       10.0748496576      -18.8466378566
 H       -13.0551232998        5.0096348550      -19.1010018818
 H       -12.2466439741        4.8198772950      -17.5372101438
 H       -13.3026038592        6.0153988202      -17.7078496879
 H       -15.1427804583        2.1519733167      -18.5455577881
 H       -13.6029799607        1.9028585060      -18.0960972542
 H       -13.7868124039        3.0133400776      -19.4119733870
 H        -9.0625695863        6.2234686909      -12.7271425778
 H       -10.6180540323        6.9288505128      -13.1935317319
 H        -9.7584504687        5.7419448208      -14.2748802634
 H       -10.0883088670        2.9067149920      -11.9850498298
 H        -8.8515491121        4.1985126076      -11.6873130209
 H        -9.0361410443        3.4259082545      -13.2191430398
 H       -17.4209579518        2.2796519133       -9.9979544078
 H       -16.5780181209        3.0151777553      -11.2578157910
 H       -16.9745686707        4.0957127303       -9.8554710842
 H       -16.1606136841        3.1897446033       -7.4186081449
 H       -15.6807553079        4.8141496993       -8.1271704972
 H       -14.5686883339        3.6252089511       -7.3995644305
 H       -14.8459487130       -0.5554769118      -13.9904169811
 H       -16.2801864336       -1.1953887144      -13.1699641325
 H       -15.0693237178       -2.2533519813      -14.0382798108
 H       -14.2253033539       -3.7657396005      -12.2149150732
 H       -15.8392516013       -3.2466980273      -11.6579162455
 H       -14.3940697352       -3.1078856268      -10.5464675218
 H        -7.7964552898       -1.0526938872      -13.3449694192
 H        -6.7537165465       -0.3120721192      -12.1988817170
 H        -8.4508925180       -0.1392915079      -11.9702341889
 H        -8.0057462376       -3.4973663163      -13.0368258773
 H        -7.0148856876       -4.1281695549      -11.6797056989
 H        -6.3417277172       -3.0645840899      -13.0037738976
 H        -3.1436272345       -2.5134773453       -6.5951566611
 H        -2.9864971453       -0.6999043668       -6.3067726654
 H        -1.5006043886       -1.6660158982       -6.7530354365
 H        -1.4561627804        0.5324298534       -8.7996230485
 H        -3.0537403034        0.6556676582       -7.8713172678
 H        -2.8809274708        0.4436296122       -9.6291952083
 H         1.6743188213       -5.5417936412      -11.5535931563
 H         2.9825771334       -6.3243081732      -10.6418132985
 H         3.1670367863       -4.7071579083      -11.4917740928
 H         0.9947378973       -6.2104725684       -8.8186053475
 H         0.2395801060       -4.5847051554       -8.3662707421
 H         1.8387280471       -5.2510696892       -7.6620824551
 H         5.8707813776       -5.3478072050       -4.3509075019
 H         6.8134409755       -6.4984151111       -5.1853696120
 H         5.2389184173       -5.9428561594       -5.8553334305
 H         8.2128415401       -2.8066188386       -5.6214986114
 H         8.4975546121       -4.1952186432       -4.5441932544
 H         7.1355603098       -3.1148092715       -4.2897436278
 H         9.2394798625       -9.1538743025      -10.2081309110
 H        10.4926984293      -10.2095826996       -9.5014318068
 H        10.5464372645       -8.3976099504       -9.2559076599
 H         7.8980089341      -10.4052461728       -6.7637562931
 H         9.0209043791      -11.5695296034       -7.4865895384
 H         7.6041866713      -10.9898273573       -8.3508474396
 H        13.5193586707      -10.9752835619       -1.3885827342
 H        13.2633948875      -11.1088323538       -3.1304876481
 H        12.0407788328      -11.4446937949       -2.1353501100
 H        10.8104148018       -9.3605130646       -0.9635180208
 H        11.5057906030       -7.7919581819       -1.1529751402
 H        12.5160497765       -9.0497216982       -0.3338167467
 H        14.1798254289       -6.8209465544       -7.8741753996
 H        12.9935730837       -7.2816999570       -6.6717906883
 H        14.6314215660       -7.6797005670       -6.2615176735
 H        16.3826579342       -5.7967741329       -5.8308838411
 H        15.7471688943       -4.1124490130       -5.4032842820
 H        15.9578900810       -4.5755762472       -7.0848383458
 Na       10.8356193289       -6.2043379755       -5.1104562462
 Na      -14.1300045173        1.7475120558      -13.2481966883
