232

 C        13.8850921244       -2.9345694661       -6.9171579593
 C        13.2272324261       -4.3512110498       -6.6075953248
 O        12.0647647665       -4.7130822668       -6.7532357708
 C        14.2050155026       -5.3813533986       -6.0156223917
 C        13.8067830237       -5.6258954823       -4.5091049502
 O        12.7520309264       -5.2585426034       -4.0130922514
 C        14.7545199905       -6.4561260649       -3.7302985748
 C        13.9808861191       -7.0940857222       -2.5006438374
 C        13.7089850103       -8.5926338969       -2.8437409826
 O        14.5659036417       -9.2362043954       -3.4456797326
 C        12.4540322023       -9.3072448242       -2.3187774134
 C        11.5490292782       -8.9780423911       -3.5492857215
 O        10.8420755382       -7.9639959888       -3.5162416465
 C        11.5696758724       -9.7889955085       -4.9032455778
 C        10.2360983174       -9.8882788050       -5.6335474604
 C        10.0933705886       -8.9156453981       -6.7865336149
 O        10.6812962273       -7.8384279133       -6.7187697826
 C         9.1634523445       -9.2438837318       -7.9402376006
 C         8.1633441183       -8.1364929795       -7.9455819077
 O         7.2183226660       -8.2235520778       -7.1558378999
 C         8.3630047453       -6.9374897181       -8.7871101225
 C         7.5223125259       -5.6097340408       -8.3441897713
 C         7.7864150347       -5.3102196108       -6.8946730915
 O         8.9049866284       -5.6130757177       -6.4479526565
 C         6.7480964612       -4.5320862313       -6.0340236102
 C         5.8394443895       -3.4698635352       -6.8494801207
 O         6.3775917882       -2.6362802918       -7.5586080323
 C         4.2945860151       -3.4378390154       -6.5840927811
 C         3.4456682580       -2.9949256950       -7.7785340791
 C         3.4053634134       -4.1407467334       -8.8012823309
 O         4.3218634905       -4.9172600805       -8.7827491231
 C         2.1182404955       -4.4060761775       -9.5829803457
 C         1.4276780571       -3.1413439610      -10.1110599226
 O         2.0520920943       -2.0681635993      -10.0358419705
 C         0.0602471838       -3.1936472825      -10.8104011442
 C        -0.8928249084       -2.0453533215      -10.3765734577
 C        -1.6502922308       -2.3540026774       -9.1251189939
 O        -1.5894397199       -3.4341241612       -8.6168011177
 C        -2.7278901158       -1.3448141111       -8.5161879825
 C        -4.1095620648       -1.6679932676       -9.2419100065
 O        -4.1825963748       -1.5991883773      -10.4375753041
 C        -5.3014456210       -2.2992307460       -8.3639669353
 C        -6.3126256880       -2.9674839789       -9.3356593974
 C        -7.1305836955       -1.9390891968      -10.1066687577
 O        -7.4585210612       -0.9255263446       -9.5029241039
 C        -7.9754280685       -2.2350124374      -11.5834159564
 C        -9.3377639216       -2.5055289958      -11.0584072647
 O        -9.6040114337       -3.6027226803      -10.5759702359
 C       -10.4132440786       -1.3626731382      -11.1352958942
 C       -11.8785288372       -1.9702969556      -11.3328901320
 C       -12.9870640197       -1.0925564047      -12.0453316167
 O       -12.7077728692       -0.0577793219      -12.5402807790
 C       -14.5238598260       -1.5718020089      -12.0062930806
 C       -15.2270364562       -0.6228236159      -11.0279556411
 O       -15.3828297789        0.5548421693      -11.4986947010
 C       -15.5472918190       -0.9634533287       -9.6109436440
 C       -15.8921103671        0.2926734431       -8.7827726730
 C       -14.9172601584        1.4937446095       -8.9672958041
 O       -13.7208743122        1.2522869337       -8.9013627870
 C       -15.3738383647        2.9189425317       -9.2299904165
 C       -14.2736393251        3.4858817104      -10.1938947609
 O       -14.4350571519        3.3698194640      -11.4092152107
 C       -13.0069817137        4.1806347502       -9.5697434140
 C       -11.6398932598        4.0691647391      -10.3325023523
 C       -11.4328959502        5.2244681783      -11.4569703106
 O       -12.0277312195        6.2536850926      -11.3211201189
 C       -10.6575346003        4.8238082076      -12.7196909451
 C       -11.8937269828        4.2274699571      -13.5440359393
 O       -12.2904335830        3.1407698524      -13.2170087774
 C       -12.5433945991        5.2155057158      -14.5297197636
 C       -13.9753359752        4.8238649363      -15.0977622280
 C       -13.9700280562        3.6746315582      -16.0685581802
 O       -13.8291992389        2.4999869423      -15.6578977702
 C       -14.1805388730        3.9338158727      -17.5406854853
 C       -15.6884076431        4.5019879624      -17.7414275275
 O       -16.4443218899        4.5245290535      -16.7978937601
 C       -16.1510480692        5.1842575479      -19.1180837051
 C       -16.8911115518        6.4267395801      -18.8406318015
 C       -16.4224191593        7.4427962596      -17.7791928427
 O       -15.4088755010        7.3350744787      -17.0675667937
 C       -17.3817865116        8.7242494318      -17.6717981922
 C       -18.5592578884        8.1817011487      -16.6137939958
 O       -19.5069303339        7.6774431614      -17.0953414000
 C       -18.4505414214        8.2379754032      -15.1498605598
 C       -16.5507064816        9.8745804352      -17.0388929984
 C       -18.1127866182        9.1544567158      -18.9346198383
 C       -13.1998445066        5.0127638538      -18.0448933237
 C       -14.1251586950        2.6377230699      -18.3993617209
 C        -9.9705355139        6.0321294398      -13.5326745070
 C        -9.5409472469        3.7633520339      -12.2220254659
 C       -16.7206088751        3.0447553083       -9.9473110927
 C       -15.3848056981        3.6264478255       -7.9070130227
 C       -15.0931219671       -1.4491129282      -13.4459281641
 C       -14.6106880065       -3.1071636282      -11.6197880733
 C        -7.6531946578       -0.8048426011      -12.3038810817
 C        -7.4382861849       -3.3935683108      -12.4657979916
 C        -2.6619463434       -1.5748298709       -7.0068306005
 C        -2.3684451487        0.1677009533       -8.9026610642
 C         2.3643034175       -5.3663169803      -10.7405523332
 C         1.1561017618       -5.1063507458       -8.5485208742
 C         5.9875492166       -5.5593152978       -5.2271022966
 C         7.5849054866       -3.5368597458       -5.0182466855
 C         9.8378473393       -9.3086223513       -9.3989931464
 C         8.4139718852      -10.6005465517       -7.8799509830
 C        12.8094776888      -10.8391905396       -2.2436508079
 C        11.7487723018       -8.7056053316       -1.1082599070
 C        14.0788820553       -6.7062418309       -6.7184277245
 C        15.7182891113       -5.0637738663       -6.1296719346
 H        14.9504737527       -2.7442449833       -6.8076801696
 H        13.4448473508       -2.1644997011       -6.1985630120
 H        13.5415581682       -2.7626641158       -7.9806201296
 H        15.4730225502       -5.8570510412       -3.2498731087
 H        15.1030636089       -7.2746469639       -4.2945437707
 H        13.1001208628       -6.5384394978       -2.4179886542
 H        14.6185212433       -7.0313013958       -1.5718644376
 H        11.9982769598      -10.7762900589       -4.8115812178
 H        12.2547054588       -9.1526266308       -5.5151533729
 H         9.4764790694       -9.4939317258       -4.9587854828
 H         9.9647948204      -10.8644287908       -5.9588697081
 H         8.0557546204       -7.2209481130       -9.8121607851
 H         9.4089017652       -6.7269823100       -8.7759594435
 H         6.5001268277       -5.8786096407       -8.5743641965
 H         7.9687774147       -4.7273836076       -8.9455105121
 H         4.0449515691       -2.8420914239       -5.7265980806
 H         3.9731177694       -4.4283429922       -6.2138106493
 H         3.8598384585       -1.9996680247       -8.0751769868
 H         2.4180591790       -2.9469965810       -7.4815438513
 H        -0.5128688826       -4.0261500730      -10.3885160890
 H         0.2527375830       -3.3226645623      -11.9458313448
 H        -1.5661246922       -1.9250518848      -11.2587201077
 H        -0.4022041033       -1.1465995435      -10.1711493590
 H        -5.8144709856       -1.6154858080       -7.7802528818
 H        -4.9665283161       -3.0774125968       -7.7124372158
 H        -7.0754841287       -3.5576135485       -8.7434694636
 H        -5.7836230021       -3.6821240000       -9.9732659641
 H       -10.3018302120       -0.6392280570      -11.9399085729
 H       -10.3604785331       -0.7931918483      -10.2295563682
 H       -12.2082160095       -2.1095091465      -10.3367035917
 H       -11.8137707082       -2.9209707228      -11.8991538631
 H       -14.6520731031       -1.4124489145       -9.1724381809
 H       -16.4100068390       -1.6511300694       -9.4587033458
 H       -16.0536471810        0.0064476646       -7.7206671985
 H       -16.8784125572        0.5873821088       -9.0448091694
 H       -12.8799311173        3.8439029992       -8.6043073067
 H       -13.3001366940        5.2252519116       -9.3552946807
 H       -11.5228566769        3.0123604053      -10.6602565749
 H       -10.8931222727        4.2129939518       -9.5853267659
 H       -11.7773636867        5.4295495778      -15.2760873189
 H       -12.7622991386        6.1882474976      -14.0889214307
 H       -14.4166936641        5.7203117624      -15.5926651882
 H       -14.7197974954        4.6457345989      -14.2994365795
 H       -16.8508299151        4.4018054100      -19.3921388797
 H       -15.2823043772        5.3121422260      -19.7765945897
 H       -17.8629030302        6.1898527133      -18.3953946694
 H       -17.2373285670        7.0050741710      -19.6710215163
 H       -19.3619358817        7.8727907991      -14.5803347184
 H       -18.4055713710        9.3087129278      -14.8095135162
 H       -17.5724733782        7.6601326842      -14.8334362383
 H       -16.7866393470        9.9604304542      -15.9790116464
 H       -16.6972397415       10.8009353368      -17.4817755887
 H       -15.5151915432        9.5294118364      -17.0643628617
 H       -18.7617102813        8.3845858784      -19.3853220625
 H       -17.4427052096        9.5195372594      -19.7296041500
 H       -18.6372183671       10.0173350729      -18.7156410471
 H       -13.0422217577        5.0880245646      -19.0866949233
 H       -12.2294350500        4.8569100864      -17.5587838126
 H       -13.3547550201        6.0015670699      -17.6781145713
 H       -15.1519399029        2.1819810325      -18.3239636415
 H       -13.5512361665        1.8583150467      -17.9311716202
 H       -13.7423313962        2.7387267600      -19.4152112048
 H        -9.1997254542        6.5187315364      -12.8216647267
 H       -10.6629129332        6.8424941321      -13.6994981973
 H        -9.4659106727        5.7080616952      -14.4233664774
 H        -9.9573989390        2.8112987185      -11.8523060108
 H        -8.9464606233        4.2760033805      -11.4984883560
 H        -8.8751849866        3.4444599849      -12.9634478909
 H       -17.3089526570        2.1412361474       -9.8902667284
 H       -16.4782091379        3.0738544030      -11.0688302439
 H       -17.2756385531        3.9812990867       -9.7435867136
 H       -16.0692293585        2.9811314302       -7.4067419132
 H       -15.6708526176        4.6655276310       -7.9646566714
 H       -14.4615878190        3.5631763030       -7.3525050949
 H       -14.5731477229       -0.6963408026      -14.1781282703
 H       -16.1395055511       -1.1849343007      -13.4091415164
 H       -15.0402458453       -2.4041845942      -14.0013151233
 H       -14.1980178862       -3.6315035933      -12.4297149512
 H       -15.7137724752       -3.3490387522      -11.6208128830
 H       -14.1448464078       -3.3446947271      -10.6409883178
 H        -8.2561644371       -0.7931976710      -13.2413608929
 H        -6.6478715540       -0.8189965636      -12.6449667967
 H        -7.9045566861        0.0258661412      -11.6538531074
 H        -8.1469201612       -3.6386580667      -13.1727429236
 H        -7.2635679250       -4.2213230787      -11.7983570873
 H        -6.5956715426       -3.0640772092      -13.0357660331
 H        -3.0816035839       -2.5336446547       -6.7922086985
 H        -3.1592218692       -0.8228823982       -6.4133857204
 H        -1.5828570392       -1.6100969353       -6.7987029680
 H        -1.3652849478        0.2318324473       -9.0897503733
 H        -2.6047139892        0.8280113951       -8.0584599882
 H        -2.8033908617        0.5358188749       -9.8585313764
 H         1.4860556723       -5.6399175127      -11.2923715139
 H         2.8441217268       -6.2049164873      -10.3099207859
 H         2.9893016912       -4.8597216005      -11.4117906535
 H         0.8890999351       -6.0884628599       -8.8563027657
 H         0.2729288821       -4.5069816605       -8.4020202793
 H         1.8138136196       -5.2996996567       -7.6649126118
 H         5.4635703988       -5.2170505013       -4.3449852832
 H         6.6280589528       -6.3582504457       -4.8308268133
 H         5.3484044768       -5.9691342665       -5.9694007193
 H         8.2278127591       -2.7764473588       -5.4059063625
 H         8.2133307490       -4.0936093004       -4.2604441495
 H         6.8022134822       -3.0435866547       -4.4894555347
 H         9.1005647846       -9.5190443586      -10.1700258378
 H        10.5990597856      -10.1351534278       -9.5151398965
 H        10.3148738541       -8.3460867294       -9.6870201831
 H         7.5087292668      -10.6023539082       -7.2887129775
 H         9.0323442541      -11.4560430651       -7.6407649418
 H         8.0869861961      -10.7708919529       -8.9046947280
 H        13.5354731651      -11.0957841436       -1.5067997313
 H        13.0733265351      -11.2370229552       -3.1805583307
 H        11.9269403819      -11.4684102325       -2.0278075114
 H        10.7250604155       -9.0479987118       -1.0332876491
 H        11.6451282072       -7.6315436436       -1.3753271836
 H        12.3096390000       -8.8713605258       -0.2275611367
 H        14.6977795165       -6.8840231057       -7.5947245371
 H        13.0481557296       -6.7678139001       -7.0508867650
 H        14.1093914954       -7.5314113155       -6.0027865076
 H        16.1764914795       -5.9425218575       -5.7549101087
 H        15.8421578948       -4.1858786053       -5.5071938798
 H        15.9994498951       -4.8574717806       -7.1923496661
 Na       10.7895797756       -6.0663274033       -5.0611568157
 Na      -13.9703523690        1.9126105473      -13.1921661904
