232

 C        13.8309878846       -2.9384473071       -7.2107422834
 C        13.3559193690       -4.2402300958       -6.5539075082
 O        12.1572334162       -4.4269383730       -6.5049824913
 C        14.2209622682       -5.4454317998       -5.9557160094
 C        13.8074082364       -5.7801045000       -4.4449899512
 O        12.7531385684       -5.3910976996       -4.0284716662
 C        14.8016144660       -6.3257789545       -3.3114907642
 C        14.0851243333       -7.2305806541       -2.2545365907
 C        13.8476742759       -8.6512487191       -2.7387302161
 O        14.5918773872       -9.2812930360       -3.4853684067
 C        12.4752084446       -9.2726450331       -2.3154654598
 C        11.4783805560       -8.8915543805       -3.7347389588
 O        10.7729692698       -7.9239895810       -3.6276375462
 C        11.6594893025       -9.7039944705       -5.0344410467
 C        10.3084542481       -9.8713425559       -5.8029515623
 C        10.1982254165       -8.9675187906       -7.0114724693
 O        10.8861966787       -7.9637203659       -7.0678763346
 C         9.1684235114       -9.2367415434       -8.1835365322
 C         8.0276804733       -8.0721522661       -8.0793147175
 O         7.0385331023       -8.2495627083       -7.4325012138
 C         8.1078042268       -6.7264702979       -8.8364308511
 C         7.2157111773       -5.6441764455       -8.1923302093
 C         7.6234803567       -5.2515881563       -6.8130098662
 O         8.7347949883       -5.5222284385       -6.3835449351
 C         6.6911989178       -4.3990107139       -5.9122670911
 C         5.8403413189       -3.3993795475       -6.8081850029
 O         6.4200499618       -2.6344007048       -7.5358465077
 C         4.3522590407       -3.3403369769       -6.5199477188
 C         3.4805450186       -2.9813608437       -7.7543390824
 C         3.4319296726       -4.1102589083       -8.8285161491
 O         4.3843453009       -4.7399589587       -9.1933767135
 C         2.0515582669       -4.4170385255       -9.5611921057
 C         1.4083827601       -3.1174897873      -10.2015604467
 O         2.0021985995       -2.0922958531      -10.0732758890
 C         0.0737205317       -3.2637859361      -10.8628461840
 C        -0.8503167284       -2.1084297203      -10.3746742754
 C        -1.6561943677       -2.4675987244       -9.1113441906
 O        -1.5966805224       -3.5825576042       -8.6024838159
 C        -2.6971735838       -1.3528216398       -8.6514785909
 C        -4.0363386805       -1.7663644718       -9.5273851753
 O        -4.0487841307       -1.4860820827      -10.7284407001
 C        -5.1122260916       -2.5291761871       -8.7848880159
 C        -6.1188367019       -3.0653753184       -9.7983083637
 C        -7.1656702163       -1.9965714002      -10.1743378919
 O        -7.4430144566       -1.0856433665       -9.4232434275
 C        -8.1278123298       -2.1974129584      -11.4478483626
 C        -9.6003105317       -2.3810509606      -10.9487059477
 O        -9.8883642505       -3.4657740140      -10.4769016989
 C       -10.6262152365       -1.3385210785      -11.1794603295
 C       -11.8750508531       -2.1118428470      -11.5165427652
 C       -12.9017875114       -1.1366573262      -11.9657877304
 O       -12.6268652653       -0.0050783808      -12.4173182389
 C       -14.5001369406       -1.6376435462      -11.9100630897
 C       -15.1005010946       -0.6131924772      -11.0097155871
 O       -15.2097460318        0.5012114839      -11.3957590864
 C       -15.3120873165       -0.9658762720       -9.5366423075
 C       -15.9000169007        0.3092616985       -8.8649402839
 C       -14.9419451011        1.4861764324       -8.8922897576
 O       -13.7658908337        1.3014063952       -8.7471654677
 C       -15.3587362541        3.0286020675       -9.1608517831
 C       -14.2525305156        3.6897500509      -10.0730222193
 O       -14.2735296752        3.5568495396      -11.2671501464
 C       -12.9612854725        4.3161069576       -9.5096789718
 C       -11.7485425862        4.0941386516      -10.4298077609
 C       -11.4592692202        5.1590696514      -11.4436589122
 O       -11.9552605951        6.3053888543      -11.4888496677
 C       -10.6271106469        4.7981884634      -12.8070444707
 C       -11.7997183876        4.2048080928      -13.6391231382
 O       -12.0176944569        3.0046834810      -13.4971339190
 C       -12.4852115645        5.1599462971      -14.6846811085
 C       -13.8880111292        4.9226567154      -15.0848036390
 C       -13.9416123255        3.6881951579      -16.0280387405
 O       -14.0496916529        2.5651671028      -15.6047805837
 C       -14.1188582859        3.9554835130      -17.5814189931
 C       -15.6077203403        4.5205819326      -17.6564180705
 O       -16.3191294495        4.4158868297      -16.6634710594
 C       -16.2086021918        5.2060845768      -18.9162304211
 C       -17.0646014561        6.4445386620      -18.7334238438
 C       -16.4878290646        7.4301800940      -17.6453606231
 O       -15.5915812939        7.0331277909      -16.9474487584
 C       -17.4259518119        8.6932047135      -17.4245613386
 C       -18.4312948069        8.0173638463      -16.4848479561
 O       -19.2917451383        7.2876021232      -16.9814430685
 C       -18.1397595786        8.0352086269      -14.9795695269
 C       -16.5110712184        9.8180714240      -16.7357899579
 C       -18.0148857907        9.3250788331      -18.7501720538
 C       -13.1194257026        4.9788637263      -18.1999183637
 C       -13.9059375055        2.6310227297      -18.3549480541
 C        -9.9097587987        6.0379098531      -13.3930653262
 C        -9.5162934061        3.7039864473      -12.6653887770
 C       -16.7478192178        3.3177753370       -9.7161919179
 C       -15.4108343808        3.5982667501       -7.6914579078
 C       -14.9386541176       -1.4875434405      -13.3222458374
 C       -14.5645723610       -3.1402718763      -11.5163306099
 C        -7.8844167989       -0.9739190520      -12.3191875077
 C        -7.6948201209       -3.5072968217      -12.1425719469
 C        -2.9716464397       -1.2952472173       -7.1482366706
 C        -2.3142754169        0.0763270930       -9.1497384259
 C         2.2936671088       -5.4768869590      -10.7200265332
 C         1.0274826261       -4.9979854044       -8.4960420694
 C         5.8352386215       -5.4568232995       -5.2012129499
 C         7.4272717038       -3.5411955707       -4.8730030026
 C        10.0791003616       -9.0713987327       -9.2868063723
 C         8.5015503291      -10.5731067330       -8.0392691153
 C        12.4622195847      -10.7990876751       -2.0776812858
 C        11.8419672725       -8.6620272467       -1.0460081635
 C        13.8707256256       -6.7709907398       -6.7369375129
 C        15.7513326138       -5.1053484912       -5.9449432172
 H        14.8593692875       -2.8841733199       -6.8362797237
 H        13.3314407467       -2.1096569404       -6.8103724033
 H        13.7979025443       -2.9882879062       -8.2486859234
 H        14.9695363664       -5.3844521997       -2.7483577470
 H        15.5705055620       -7.0835981728       -3.5957981770
 H        13.1218787863       -6.7447946043       -1.8755653862
 H        14.7881591874       -7.3798613982       -1.4606882894
 H        11.8984694453      -10.7002109955       -4.6212334255
 H        12.4724210278       -9.3598956898       -5.6747051933
 H         9.4205228736       -9.6985790194       -5.1336941092
 H        10.2357689181      -10.9237261979       -6.1989452608
 H         7.6545807119       -6.8431294090       -9.8381031575
 H         9.1748304738       -6.3390955312       -8.9578426698
 H         6.2025321447       -6.0458569268       -8.2938479691
 H         7.3618354496       -4.7721521778       -8.7682431874
 H         4.0953310952       -2.6222680143       -5.7106273304
 H         3.9395971431       -4.3077317147       -6.1041838343
 H         3.9798166187       -2.1549660952       -8.2548952735
 H         2.4262513433       -2.7019135654       -7.4607653146
 H        -0.3838734969       -4.2713415729      -10.7934835599
 H         0.3495434223       -3.0264611269      -11.8328830536
 H        -1.5333520423       -2.0037048106      -11.1969450560
 H        -0.1732096089       -1.1948906767      -10.3621305850
 H        -5.8003052631       -1.9493044821       -8.0573606473
 H        -4.6347864808       -3.3765759298       -8.2206123913
 H        -6.5908345683       -3.9136685987       -9.4299735977
 H        -5.5802596097       -3.3468428314      -10.7193854688
 H       -10.4254860385       -0.5793667619      -11.9558070743
 H       -10.7222518392       -0.7290077990      -10.2584096875
 H       -12.2423745279       -2.5924638590      -10.5504032908
 H       -11.5963083794       -2.8595037466      -12.3103361970
 H       -14.4236812396       -1.2492530975       -8.9417723392
 H       -16.0297049146       -1.7843528805       -9.4656148130
 H       -16.1194324776        0.1087938338       -7.8105850776
 H       -16.9321419030        0.5874394127       -9.2969480600
 H       -12.7876275475        4.0784019727       -8.4006875015
 H       -13.1956084051        5.3405069035       -9.2990072713
 H       -11.8864942506        3.2167969715      -10.9777570217
 H       -10.8295326052        3.8781278426       -9.8081309116
 H       -11.7907857619        5.1479890555      -15.5500776331
 H       -12.4720054509        6.2173470756      -14.3473908560
 H       -14.5157368921        5.7191880412      -15.4496882674
 H       -14.3603535721        4.5609578906      -14.1851006886
 H       -16.7552101465        4.3174752909      -19.3017706529
 H       -15.3238450799        5.3736584103      -19.5159740780
 H       -18.0621807944        6.1770783063      -18.4168220745
 H       -17.3225753289        7.0968184265      -19.5940233570
 H       -18.7862195614        7.2408710260      -14.5902640742
 H       -18.4908299952        8.9095917514      -14.4567180325
 H       -17.1371330264        7.7173189070      -14.6437214668
 H       -15.8824047244        9.4839644008      -15.9025002165
 H       -17.2817888628       10.4753624543      -16.2831526595
 H       -15.8949064495       10.2776408324      -17.5055278504
 H       -18.8199297477        8.6961650209      -19.1059997284
 H       -17.2724010807        9.3271166871      -19.5238319946
 H       -18.4858643472       10.3744868962      -18.7023641915
 H       -13.3310895072        5.1507927314      -19.2879473477
 H       -12.0839453076        4.7329226435      -18.2140987348
 H       -13.0936008432        5.9650373495      -17.7273761094
 H       -14.4676487665        1.7772530866      -18.0452615655
 H       -12.8130807562        2.3655450876      -18.2591485211
 H       -14.0320083058        2.8169622709      -19.4538326543
 H        -9.1629858150        6.4185794526      -12.7796140188
 H       -10.5316907330        6.9434652326      -13.5217692234
 H        -9.4699468457        5.7176365196      -14.3753431681
 H        -9.9984493302        2.7568485580      -12.7723649319
 H        -8.9839964795        3.7345012445      -11.7151291949
 H        -8.7487702974        3.7585058767      -13.4789295394
 H       -17.4233155614        3.0236676790       -8.9587961238
 H       -17.0367450088        2.8565108176      -10.6041798592
 H       -16.8761034774        4.4245584648       -9.8249835967
 H       -16.2550303294        3.1712546510       -7.1116505529
 H       -15.2691628092        4.6992214309       -7.7997691332
 H       -14.4647298011        3.3641883761       -7.2128915119
 H       -14.6365481587       -0.5736799654      -13.6940070391
 H       -16.0367680837       -1.7337223228      -13.5216593365
 H       -14.4382508058       -2.1668408200      -14.0055638115
 H       -13.8768099815       -3.6587499360      -12.2172570533
 H       -15.5281737905       -3.5067073621      -11.7329165094
 H       -14.3757948452       -3.2422807902      -10.4663820693
 H        -8.7375606583       -0.6590696395      -12.9194865654
 H        -7.1793894888       -1.3211368587      -13.1260511961
 H        -7.4416907356       -0.1512608220      -11.6710814984
 H        -8.0620803849       -3.4843356581      -13.2342234395
 H        -8.1632474517       -4.3054280188      -11.5508329546
 H        -6.6086680201       -3.4896540924      -12.1947662430
 H        -2.6730028567       -2.2935307492       -6.8039895852
 H        -3.9884037408       -1.0907178940       -6.9126828199
 H        -2.3556986696       -0.6303775826       -6.6619242806
 H        -1.3344320337        0.3979379077       -8.6789020588
 H        -3.0415041373        0.8964504011       -8.9077071638
 H        -2.0980504820        0.0496356815      -10.2204155808
 H         1.3884593302       -5.8066475515      -11.2067374615
 H         2.8295543942       -6.3439333456      -10.2976659833
 H         2.9341449069       -4.9727873502      -11.5018467592
 H         0.4644677333       -5.7434088126       -9.0926849378
 H         0.3809569255       -4.2244964422       -8.0809218291
 H         1.5541370844       -5.5694305734       -7.8324667565
 H         5.0380258803       -4.9238942969       -4.6785163278
 H         6.3332844980       -5.7149085164       -4.2652719739
 H         5.5375210872       -6.4076512500       -5.7133936820
 H         8.0560806819       -2.7730363333       -5.4346580974
 H         8.2309125822       -4.0169266841       -4.3367076329
 H         6.7421365151       -2.9594153315       -4.2208281419
 H         9.6236900243       -9.2096719108      -10.2634702816
 H        10.7365696917       -9.8836257071       -9.2767960275
 H        10.6851263737       -8.1927292300       -9.2395103026
 H         8.0052146125      -10.6103061166       -7.0662771504
 H         9.3101677816      -11.3291062999       -8.0552844867
 H         7.7836297640      -10.8999642843       -8.7902947053
 H        12.9304772035      -10.9914241988       -1.0715314956
 H        12.8993078527      -11.4953575738       -2.8433408306
 H        11.4856803524      -11.2210553967       -1.9434325829
 H        11.0586435211       -9.3880690705       -0.8184384602
 H        11.4060263569       -7.6875849120       -1.1501298613
 H        12.5361395691       -8.8306213577       -0.1991595995
 H        14.7406133544       -7.0541800627       -7.3308655667
 H        12.9140512128       -6.7283974911       -7.2982619616
 H        13.7622980140       -7.6002943769       -6.0686939274
 H        16.3097230886       -5.9889029927       -5.5818656127
 H        15.8311055968       -4.2641497393       -5.2448278600
 H        15.9970331279       -4.8751484635       -6.9448279607
 Na       10.6602196477       -5.9089161989       -5.3060584318
 Na      -14.1299802069        1.8248780364      -13.1783511560
