232

 C        14.1012497528       -3.3548478048       -7.2405417268
 C        13.3534935433       -4.2736073737       -6.3073043340
 O        12.1537800131       -4.2234373918       -6.0649735509
 C        14.2237845066       -5.4560708625       -5.7301959336
 C        13.7192356994       -5.8939950896       -4.2425142105
 O        12.5553899915       -5.9173297145       -3.9687445761
 C        14.8209260850       -6.3679418088       -3.2539798084
 C        14.1563301699       -7.2413543289       -2.1595059240
 C        13.7203563746       -8.5615323861       -2.7015022668
 O        14.3495103597       -9.1491731756       -3.5377275213
 C        12.2386706948       -9.0159818264       -2.5677631607
 C        11.4580548736       -8.6209382177       -3.8869930727
 O        10.7228424864       -7.6493479828       -3.8878739846
 C        11.5752342739       -9.6329125185       -5.1058718747
 C        10.3198000855       -9.7731679643       -5.9328315418
 C        10.2965948095       -8.7646213159       -7.1569825439
 O        10.9152560963       -7.6949588138       -7.1309379425
 C         9.3167090696       -9.0109003554       -8.3404016011
 C         8.0097340310       -8.0390464816       -8.0649242429
 O         7.0029048803       -8.5316764215       -7.6825144938
 C         8.0920280810       -6.6015292884       -8.6066896501
 C         6.9849748652       -5.7397494466       -8.0016571811
 C         7.5048978199       -5.2294380268       -6.6233783407
 O         8.6335104236       -5.3575516839       -6.2632599091
 C         6.5023345187       -4.4168913995       -5.7331295796
 C         5.7060826933       -3.4231874477       -6.7413530418
 O         6.2881454496       -2.8096138433       -7.6073482862
 C         4.1967689013       -3.3414348712       -6.6463360814
 C         3.6088147366       -2.8291035747       -7.9650768824
 C         3.5547627405       -3.9827674598       -9.0823753699
 O         4.5905824722       -4.5246961781       -9.4089990076
 C         2.1492950363       -4.4164355209       -9.5335817409
 C         1.4447361322       -3.2206807672      -10.1827590688
 O         1.8413439130       -2.1161142158      -10.1360370831
 C        -0.0513913427       -3.4578252084      -10.8777760916
 C        -0.8967956064       -2.2093413781      -10.6116971936
 C        -1.6625715018       -2.2495107639       -9.2464855161
 O        -1.6408816597       -3.2910497902       -8.5466554172
 C        -2.7325771161       -1.1338403673       -8.9770294550
 C        -3.9143398289       -1.7028523852       -9.8496213790
 O        -3.9907508874       -1.4406826431      -11.0449259121
 C        -4.7454873230       -2.8051692106       -9.3217949522
 C        -5.8932501033       -3.2817761662      -10.2883080194
 C        -7.1154046950       -2.3345448259      -10.2936979119
 O        -7.2052616325       -1.4653230809       -9.4756522039
 C        -8.1365728598       -2.4041235664      -11.4844787578
 C        -9.6055087962       -2.5085240386      -10.6926374586
 O        -9.8117740328       -3.4166788958       -9.9019359391
 C       -10.6850190650       -1.3549378043      -11.0337941224
 C       -11.9905097385       -1.9929705741      -11.6888030748
 C       -13.0627131301       -0.9709611803      -12.0269170909
 O       -12.7969328064        0.1107525274      -12.5701495796
 C       -14.5337171111       -1.4877586952      -11.9609512990
 C       -15.2508371381       -0.3870625863      -11.1427091221
 O       -15.4486156483        0.7351238957      -11.5807487131
 C       -15.5432187376       -0.6847693363       -9.5876684013
 C       -15.9500087428        0.6123021939       -8.8732597935
 C       -14.7637811458        1.6535016051       -8.8178829314
 O       -13.6152100605        1.4007177773       -8.5100524088
 C       -15.1827917494        3.1709506409       -9.0508575180
 C       -14.1439363064        3.6348972556      -10.1403416927
 O       -14.3857561835        3.4179688059      -11.3052860660
 C       -12.8341940637        4.2304965256       -9.6623029666
 C       -11.6854984309        3.9178771449      -10.5631169625
 C       -11.4303666886        4.9974372932      -11.5903917197
 O       -11.9501465374        6.0869015554      -11.3661003083
 C       -10.4805398438        4.8086403322      -12.8470452291
 C       -11.6107823301        4.3409501542      -13.8661455720
 O       -11.8450842402        3.1435706645      -14.0303017330
 C       -12.4334546238        5.3190455050      -14.6891027425
 C       -13.8447344331        4.8378421297      -14.9098258722
 C       -14.0919219945        3.5714298497      -15.8031437903
 O       -14.2900281292        2.4578562380      -15.4014327986
 C       -14.1728160649        3.8734160197      -17.3801801686
 C       -15.6289189644        4.4149945490      -17.5545463249
 O       -16.5192792862        4.1495357314      -16.7503100293
 C       -15.9962120348        5.1675922115      -18.9560534920
 C       -16.9857333274        6.2764354947      -18.5818462340
 C       -16.3596804386        7.2112931738      -17.4874062770
 O       -15.2381423943        7.0091071610      -17.0731775834
 C       -17.2250884732        8.3555636022      -17.0566139050
 C       -18.3335287732        7.8108449914      -16.1383660485
 O       -19.2928122497        7.1745114708      -16.5886721089
 C       -18.1528117171        7.6968385963      -14.5689227086
 C       -16.2930333465        9.4499065411      -16.3833296328
 C       -18.1153973042        9.0427741631      -18.2033378856
 C       -13.0848294826        4.9410260887      -17.7109997148
 C       -14.1177772951        2.5581770603      -18.2988909556
 C        -9.6412058557        6.0616726871      -13.3711027409
 C        -9.5774519933        3.6948635577      -12.3757341599
 C       -16.6481798986        3.3967853802       -9.4509868671
 C       -15.0179723238        3.9400685000       -7.6238288539
 C       -15.1928795220       -1.5078720180      -13.3503405136
 C       -14.7472459743       -2.8487226402      -11.3271861452
 C        -7.7966038059       -1.1975900946      -12.4408438752
 C        -8.0622048944       -3.8287003938      -12.3181137796
 C        -3.0881128924       -1.2964042967       -7.4552239628
 C        -2.3016349765        0.2468864291       -9.3921274831
 C         2.1726940291       -5.5872045067      -10.6040006657
 C         1.2878437703       -4.9783515903       -8.2857419842
 C         5.6768979366       -5.4687914112       -4.8802688416
 C         7.3783180712       -3.4558488670       -4.7613250087
 C         9.8212459582       -8.6248118886       -9.6784600837
 C         8.8450016088      -10.4708731565       -8.3184838563
 C        12.3731618890      -10.5042759125       -2.3133046604
 C        11.5501466365       -8.4193307697       -1.2547317240
 C        13.9245699822       -6.7789969308       -6.5757211209
 C        15.7281453265       -5.0756387906       -5.6699487948
 H        14.6632383429       -2.7168597078       -6.4829601959
 H        13.3313252166       -2.7848576381       -7.7831610270
 H        14.7688231639       -3.9103294474       -7.9546502533
 H        15.2304830779       -5.5643029845       -2.7198969761
 H        15.3979762974       -7.0632187658       -3.7369330817
 H        13.2805023971       -6.6637080641       -1.7568590089
 H        14.8356971506       -7.4074249193       -1.3245993062
 H        11.7289434147      -10.6632663334       -4.6934720552
 H        12.4336184806       -9.4700690004       -5.7554146934
 H         9.4374801002       -9.7495700389       -5.3656135621
 H        10.4252845214      -10.8154277599       -6.4061248761
 H         7.9755665695       -6.6654806441       -9.6751612250
 H         9.0115852420       -6.0025649070       -8.4639051050
 H         5.9610469466       -6.2765770602       -7.8672597647
 H         6.9876143262       -4.9111853080       -8.6541862233
 H         3.8941913008       -2.5912251459       -5.9345993956
 H         3.6705875254       -4.2046317369       -6.2988336048
 H         4.1245891198       -1.9925394178       -8.4555200215
 H         2.6005281377       -2.5323217704       -7.6571193115
 H        -0.5416829637       -4.3453907526      -10.3740604559
 H         0.0683455968       -3.6325483958      -11.9819623958
 H        -1.6413396125       -2.1317389702      -11.3609745959
 H        -0.2037854856       -1.3670840771      -10.7713974701
 H        -5.0882822681       -2.5782466588       -8.3420198262
 H        -4.1138514725       -3.6423782468       -9.2697464155
 H        -6.2690394460       -4.3041296882      -10.0847256147
 H        -5.3875474122       -3.3267805658      -11.2205978832
 H       -10.2710170397       -0.6326211154      -11.6535041328
 H       -11.1304064680       -0.8296006801      -10.2370726721
 H       -12.3455777936       -2.8338808323      -11.0656778019
 H       -11.6309194188       -2.4147906608      -12.6464312114
 H       -14.5854303747       -1.0760323614       -9.1520140369
 H       -16.2922222503       -1.4466302222       -9.3936047376
 H       -16.1927068043        0.4340132542       -7.8086507012
 H       -16.8028965395        1.0211593747       -9.4455718600
 H       -12.7346777201        4.0785336987       -8.6027653517
 H       -12.9116082277        5.2657458628       -9.6043767273
 H       -11.8696187948        3.0108752801      -11.1286938737
 H       -10.7848465795        3.7653038834      -10.0124386647
 H       -11.9443157307        5.3922126983      -15.6625143197
 H       -12.4727965516        6.3185290238      -14.2694253542
 H       -14.4911320901        5.6049652337      -15.3394932129
 H       -14.2992532742        4.5432050350      -13.9428024255
 H       -16.5332113900        4.5771040518      -19.7348728093
 H       -15.0940836016        5.4770456834      -19.4713829861
 H       -17.9377516443        5.9486681469      -18.1975637537
 H       -17.3164653935        6.8201031736      -19.4503461548
 H       -18.6976615640        6.7998834507      -14.2435118692
 H       -18.3187308991        8.6106572795      -13.9483083409
 H       -17.1190364818        7.3284513687      -14.3064544731
 H       -15.3316480533        9.0865706988      -16.2187567985
 H       -16.7607130702        9.8289555018      -15.4328228383
 H       -16.2277335002       10.2412415318      -17.0965017852
 H       -18.7923287115        8.3616604364      -18.6953302584
 H       -17.5125680667        9.5076116800      -18.9515148586
 H       -18.8863736639        9.7279710554      -17.8116649452
 H       -12.8431132075        5.1399742307      -18.7399869201
 H       -12.0686992588        4.7414660908      -17.4028985099
 H       -13.4109638936        5.9146153241      -17.3581739435
 H       -14.3148005580        1.6380308834      -17.7688263539
 H       -13.1154581434        2.6269816364      -18.7992495962
 H       -14.9174828254        2.6046436396      -19.0134897889
 H        -8.6677337948        6.0775122710      -12.9875993046
 H       -10.0113966690        7.0724219742      -13.0455664575
 H        -9.5443109826        6.1042274388      -14.4731613714
 H       -10.0861078682        2.8614004165      -11.9897128838
 H        -8.8780082823        4.0175411350      -11.5860438320
 H        -9.0022979798        3.3808445843      -13.2630378693
 H       -17.2173730485        3.1075881761       -8.5341565762
 H       -16.8568752030        2.8773771873      -10.4096745970
 H       -16.9488244222        4.4672207057       -9.4866324372
 H       -15.7630333996        3.6707115436       -6.8919033512
 H       -15.0421118376        4.9770832243       -7.8235079849
 H       -13.9990291666        3.7803639261       -7.2908831724
 H       -15.4439948426       -0.5434339403      -13.6185745818
 H       -15.9929299300       -2.2863652047      -13.4986452774
 H       -14.5952918918       -1.7755752652      -14.2465353693
 H       -14.4869284606       -3.5704723661      -12.1677587713
 H       -15.7556622424       -2.9921399519      -11.0357746761
 H       -14.1410657014       -2.9256298213      -10.4359067172
 H        -8.1442559018       -1.4843017872      -13.4135676088
 H        -6.7059912310       -0.9929850461      -12.5013880066
 H        -8.3379941871       -0.3251022875      -12.1659204512
 H        -9.0059371184       -4.1572783575      -12.7246419430
 H        -7.7390351311       -4.5307263792      -11.6300868858
 H        -7.3145424455       -3.6422281971      -13.0206388131
 H        -3.4054093236       -2.3303215342       -7.2017314017
 H        -3.8845480458       -0.5507325915       -7.3061649193
 H        -2.2944719007       -1.0522656239       -6.7494275210
 H        -1.3831243727        0.5959183948       -8.8248615987
 H        -3.0099040970        0.9350767685       -9.0075699795
 H        -2.3712623688        0.3185113762      -10.4446409228
 H         1.1300035078       -5.6723568837      -10.8714251482
 H         2.3767526860       -6.5050402508      -10.0785625800
 H         2.8089763283       -5.5637933367      -11.4897394175
 H         0.2842339986       -4.5474850241       -8.3822172167
 H         1.8155645026       -4.8233195539       -7.3270322703
 H         1.1916454555       -6.0457596682       -8.4603352864
 H         5.6858284095       -5.1786686690       -3.8149502903
 H         6.1267801759       -6.4098152334       -4.9716654879
 H         4.6779995432       -5.6556751165       -5.3150964964
 H         7.8218893032       -2.6232803056       -5.2956774024
 H         8.2153629736       -3.9393939945       -4.3674483187
 H         6.7685382586       -2.9859370987       -3.9450388335
 H         9.0644645185       -8.8120219930      -10.4663394788
 H        10.6675527764       -9.2436706796      -10.0628077598
 H        10.2521640986       -7.6344713143       -9.6743616212
 H         8.2037027603      -10.5586415074       -7.4462922632
 H         9.5275547597      -11.2903846297       -8.3837557611
 H         8.1543768739      -10.5930465699       -9.1410153874
 H        12.7560331790      -10.7139096013       -1.3483300723
 H        13.1203888629      -10.9815385325       -2.9721765156
 H        11.4703400050      -11.0697582324       -2.4567654203
 H        10.6872406017       -9.0083618067       -0.9635712697
 H        11.2776467129       -7.4204180181       -1.4488432249
 H        12.2346160888       -8.5468465689       -0.3913926291
 H        13.9116145215       -6.6126388146       -7.6381208324
 H        13.0782418975       -7.3187965686       -6.1797833417
 H        14.7935556726       -7.4489960123       -6.5365863679
 H        16.3413429285       -5.8495659270       -5.1369346964
 H        15.8511497741       -4.1638365019       -5.0829100413
 H        15.9964667037       -4.9888597810       -6.6855515147
 Na       10.8646743804       -6.1147026953       -5.6360064071
 Na      -14.0497221280        1.9830285531      -13.2429578911
