232

 C        13.9970743445       -3.3135260276       -7.2564731725
 C        13.4137134369       -4.2973348363       -6.3279980418
 O        12.2306883568       -4.1785009919       -6.0854971500
 C        14.3098416887       -5.6058194451       -5.6677329517
 C        13.8342680526       -5.9665187389       -4.2379717279
 O        12.6571121161       -5.9378762297       -3.9385947720
 C        14.8941528909       -6.3822593663       -3.1426453249
 C        14.1300115710       -7.1895161117       -2.0082845864
 C        13.6536297466       -8.4328013808       -2.8020575795
 O        14.3805185177       -9.0094899506       -3.6174673336
 C        12.1481239958       -9.0040693843       -2.5860044968
 C        11.3809545397       -8.7407007562       -3.8554756823
 O        10.5821354820       -7.8072796946       -4.0325106926
 C        11.6379565865       -9.5163493652       -5.1611422450
 C        10.2779889960       -9.6429703212       -6.0313554708
 C        10.1696774242       -8.7010189282       -7.2266392918
 O        10.9203980017       -7.7403637729       -7.3844660402
 C         9.2024622526       -8.9995158599       -8.4047459147
 C         7.9886946642       -8.1345805049       -8.2107949837
 O         7.0027157856       -8.5557720315       -7.5960494681
 C         8.0965554182       -6.6861422262       -8.6204721714
 C         7.0743658065       -5.7247137531       -7.9020705927
 C         7.4941786691       -5.2005804696       -6.5232046295
 O         8.6917969346       -5.3233406564       -6.1544743193
 C         6.3880313824       -4.4257782807       -5.7052158301
 C         5.7041209479       -3.4555349452       -6.7377953840
 O         6.3968726953       -2.8332705291       -7.5236168796
 C         4.1642634046       -3.4417767558       -6.6860600627
 C         3.6053670159       -2.8304936496       -7.9702310937
 C         3.5485357891       -3.9509319228       -9.0376186009
 O         4.5481261180       -4.4993884876       -9.4294870072
 C         2.0650626033       -4.4568503461       -9.5131033009
 C         1.2914554417       -3.2439773711      -10.1861564399
 O         1.8488510904       -2.1451657346      -10.1593536635
 C        -0.0652907891       -3.4630594926      -10.7293481151
 C        -0.9031171494       -2.2446767538      -10.6858103449
 C        -1.6783703684       -2.2893525376       -9.3617149646
 O        -1.4460057307       -3.1665673068       -8.6021947506
 C        -2.7830773145       -1.1136827028       -9.0600183715
 C        -3.9429213349       -1.7528811090      -10.0105592732
 O        -4.0042488185       -1.3106948752      -11.1330710732
 C        -4.8080348025       -2.9316124629       -9.4794495183
 C        -5.8295768540       -3.4342279475      -10.4533439081
 C        -7.0068225045       -2.4808826089      -10.4149936458
 O        -7.1333430977       -1.5956059050       -9.5359743954
 C        -8.2146197733       -2.5493494788      -11.4913134869
 C        -9.5952250191       -2.5300425355      -10.7837603702
 O        -9.8119920615       -3.2173782317       -9.8161814579
 C       -10.6562157695       -1.4487587899      -11.0242891624
 C       -11.9594069101       -1.9738684465      -11.7665939242
 C       -13.0668803259       -0.9944691736      -12.1179578591
 O       -12.7835178029        0.1176822697      -12.6520990502
 C       -14.6068840023       -1.3886569429      -11.9041365026
 C       -15.2973267199       -0.2272464586      -11.1012337313
 O       -15.6495808340        0.7694121432      -11.6388862653
 C       -15.6639978315       -0.5634740098       -9.6468372723
 C       -15.8780064832        0.6584948782       -8.8317670194
 C       -14.7801992521        1.7404655715       -8.7133636805
 O       -13.6325884624        1.4401751670       -8.4571234056
 C       -15.2216740605        3.2218769650       -9.0569781094
 C       -14.1616912017        3.6004710475      -10.1746528984
 O       -14.3281508074        3.3570641406      -11.3493297840
 C       -12.7861840320        4.0788673323       -9.6783909852
 C       -11.6345142185        3.8807825287      -10.6304198061
 C       -11.3369542276        5.1253554278      -11.5202827083
 O       -11.9843363591        6.1483281501      -11.4423276715
 C       -10.4190215845        4.7640902523      -12.7787441731
 C       -11.5356284843        4.2666092579      -13.8504263881
 O       -11.7172182625        3.0681612277      -13.9876884956
 C       -12.5317899579        5.2631855718      -14.4921587626
 C       -13.9667446639        4.8896790012      -14.8829923325
 C       -14.1214704292        3.6088267838      -15.7459918803
 O       -14.3189455581        2.4623121355      -15.3533852927
 C       -14.2138209666        3.8404677147      -17.3254454842
 C       -15.6912074939        4.3765968016      -17.6533735589
 O       -16.5961789418        4.1520949412      -16.8344649647
 C       -16.0049526250        5.1446860807      -18.8670658528
 C       -16.9719471349        6.2908062561      -18.5634126342
 C       -16.2759080289        7.2481021391      -17.4955224159
 O       -15.1564455846        6.9658185490      -17.0874539852
 C       -17.1383797991        8.3561988517      -16.9389501665
 C       -18.3023806215        7.4989746563      -15.9425005818
 O       -19.3121830322        7.2475188671      -16.4830040575
 C       -18.1428972158        7.5495617253      -14.3979390917
 C       -16.2874295295        9.4281697397      -16.3121339569
 C       -18.1276779845        8.9138169945      -17.9890821260
 C       -13.1445220244        4.7588897352      -17.9073640150
 C       -14.0009257447        2.5688156313      -18.0984647990
 C        -9.7550937539        5.9511344326      -13.3761074981
 C        -9.3946401384        3.6036819705      -12.5059869896
 C       -16.6884416199        3.5094807089       -9.3384778011
 C       -14.9142271998        4.0182423551       -7.7459868208
 C       -15.1945408464       -1.3707228733      -13.3403677830
 C       -14.7818430333       -2.8517591420      -11.2875076422
 C        -7.8817025919       -1.3142604828      -12.3443146490
 C        -8.0981342068       -3.8793108255      -12.3155705376
 C        -3.0328554303       -1.1573156980       -7.5376387669
 C        -2.3313086100        0.2701312481       -9.4261996648
 C         2.2628582600       -5.6200862714      -10.5639085789
 C         1.4149041412       -4.8764223507       -8.2321274864
 C         5.5665395308       -5.3360267480       -4.8681574270
 C         7.2207738910       -3.3747474514       -4.7505868296
 C         9.9530686313       -8.5025765104       -9.7587956399
 C         8.8802011131      -10.5994083216       -8.4930853609
 C        12.2191787814      -10.5465063188       -2.1862771917
 C        11.4035341127       -8.3378337717       -1.3906685344
 C        14.0204812530       -6.7620198065       -6.6056816991
 C        15.7791456551       -5.0776093862       -5.5363956811
 H        14.3458607939       -2.5213196768       -6.5505028385
 H        13.1638668361       -3.0159196983       -7.8711776538
 H        14.7564942062       -3.7181274272       -7.8771728919
 H        15.3371835142       -5.5928776891       -2.6083975914
 H        15.5119523152       -7.1997613824       -3.5400023680
 H        13.3924741674       -6.5365738529       -1.4518513152
 H        14.8834251932       -7.5117902247       -1.2869472127
 H        12.0931893548      -10.5210100345       -5.0907372592
 H        12.3946765003       -8.8990602038       -5.6680930267
 H         9.4225761012       -9.3175450263       -5.3411521283
 H        10.1104062427      -10.6919325808       -6.3076037731
 H         7.9963690545       -6.5874967266       -9.7323348178
 H         9.1561575555       -6.2790738231       -8.4305926409
 H         6.1984736862       -6.3442579639       -7.6471664887
 H         6.8725803948       -4.9184335416       -8.5935547867
 H         3.7300449598       -2.9324285757       -5.8339055858
 H         3.7705137349       -4.5014550608       -6.6122240778
 H         4.2162736980       -2.0711225631       -8.3990391440
 H         2.5490669003       -2.4403338671       -7.8059336462
 H        -0.5426060190       -4.3048866628      -10.1319157848
 H         0.1372623104       -3.7918703291      -11.7349737326
 H        -1.4643212708       -2.1396904176      -11.5732288456
 H        -0.2652745825       -1.3171981701      -10.6465167805
 H        -5.3263320586       -2.5251160879       -8.5827649053
 H        -4.2174138610       -3.7862108112       -9.1636209276
 H        -6.2643512071       -4.3151143706      -10.2298424229
 H        -5.3062006080       -3.5315811900      -11.4052471695
 H       -10.2480942341       -0.5652827109      -11.4937581737
 H       -11.0968747665       -1.1869210720      -10.1161932525
 H       -12.4007910604       -2.8377308375      -11.1822454278
 H       -11.5121116876       -2.4203216035      -12.6729754950
 H       -14.9709329726       -1.2822942773       -9.1600657675
 H       -16.6403281774       -1.0815479226       -9.6336092170
 H       -15.8553276329        0.2786278124       -7.8061569487
 H       -16.9284953984        1.0440638017       -9.1352546946
 H       -12.6818069950        3.7650777580       -8.6457397752
 H       -12.8398911303        5.0885399630       -9.4721995256
 H       -11.8783900324        3.2076341474      -11.3348702863
 H       -10.7383788093        3.5110631244      -10.1313916684
 H       -11.9989650905        5.6361530997      -15.3815460001
 H       -12.6855764931        6.1268815928      -13.8428239012
 H       -14.5389516319        5.7251978193      -15.3122480801
 H       -14.4204049960        4.5728691107      -13.9624994374
 H       -16.5428120323        4.5542212900      -19.6067487892
 H       -15.1071991180        5.3907678128      -19.4087702292
 H       -17.8445280839        6.0468110210      -18.0278271799
 H       -17.3462372260        6.6399873976      -19.5230590458
 H       -18.9770847265        6.9684219855      -14.0174083881
 H       -18.1678562808        8.6229624635      -14.1551091650
 H       -17.3026870318        7.0851851936      -13.8148517417
 H       -15.4262108496        8.9891611328      -15.8061042176
 H       -16.9288466734        9.9620530244      -15.6382256834
 H       -15.9791340807       10.1317108429      -17.0647914815
 H       -18.7491256552        8.1957838868      -18.4141106995
 H       -17.5040085058        9.2448241481      -18.7652672335
 H       -18.8982007654        9.6651000718      -17.7277917705
 H       -13.1615915513        4.9601062372      -18.9798686891
 H       -12.1813699924        4.3891458063      -17.8366382628
 H       -13.1623893048        5.7551066893      -17.5274075084
 H       -14.2994721502        1.7357622835      -17.4950604303
 H       -12.9260017697        2.5865616388      -18.3165592397
 H       -14.6592344387        2.4364234401      -19.0051344499
 H        -8.8232293254        6.1213348274      -12.8577537849
 H       -10.2429170655        6.9357864861      -13.3048236376
 H        -9.4503108777        5.8157447888      -14.4461659977
 H        -9.8737196606        2.6513046636      -12.4452331102
 H        -8.9515051059        3.7063477658      -11.5477210940
 H        -8.6400608862        3.6012263325      -13.2896491778
 H       -17.2242278845        2.8446682716       -8.8373695743
 H       -16.8385360580        3.5022033772      -10.3902967498
 H       -17.1245992589        4.4110222601       -8.8044904342
 H       -15.6949256661        3.8828970096       -6.9746419076
 H       -14.8867945177        5.1389569774       -7.9907307753
 H       -13.9546527267        3.7536959164       -7.3981922472
 H       -15.2103206676       -0.4066096772      -13.8462470888
 H       -16.1566338067       -1.9562978649      -13.4036464550
 H       -14.6736514168       -1.9802348707      -14.0554100375
 H       -14.4008150648       -3.5582544744      -12.0356383877
 H       -15.8452151685       -3.0245346473      -11.1598591591
 H       -14.3115158488       -2.9258793781      -10.2959845389
 H        -8.5035542020       -1.3445440057      -13.2595013613
 H        -6.8150983721       -1.3205381716      -12.6068156106
 H        -8.1735159089       -0.3467662960      -11.7985242521
 H        -9.0201818747       -4.0753886653      -12.8134769427
 H        -7.9379559639       -4.6156441062      -11.5898350326
 H        -7.2503681543       -3.7412336870      -12.9080313773
 H        -3.5375016390       -2.0716987627       -7.2369640457
 H        -3.6218649418       -0.3054960812       -7.3602431908
 H        -2.1988020822       -1.0804536275       -6.9457161616
 H        -1.3674028770        0.3554670524       -9.2150485916
 H        -2.7535301586        1.1184901945       -8.7659291780
 H        -2.6959185948        0.4538935972      -10.4459524589
 H         1.3845672916       -6.0056720013      -10.9446367515
 H         2.9066516626       -6.4266776494      -10.2754736806
 H         2.8486766483       -5.1265549213      -11.3572904091
 H         0.5133822695       -4.2404020962       -8.2089463514
 H         2.0507296378       -4.8520478753       -7.3712781490
 H         1.1056565901       -5.8525219401       -8.3023605353
 H         5.4950905040       -4.9589997445       -3.8552575167
 H         6.0448800342       -6.3383905479       -4.8944367165
 H         4.5865537877       -5.5892082303       -5.2904368001
 H         7.8847550824       -2.7329031370       -5.3839926423
 H         7.9184248921       -3.8410531354       -4.0433993043
 H         6.6137959369       -2.6659236680       -4.1981245629
 H         9.1952127791       -8.5657574905      -10.5685935481
 H        10.6966468959       -9.1454105059      -10.1227196982
 H        10.4669706167       -7.5262152843       -9.7392976755
 H         8.2042367571      -10.9256108773       -7.7250101911
 H         9.7524466156      -11.2739509071       -8.4806557013
 H         8.3745805238      -10.8166302289       -9.4220095534
 H        12.8814156044      -10.8455356772       -1.3322986671
 H        12.7326161190      -11.0738265571       -2.9968335955
 H        11.2784744374      -11.0171739337       -2.1246610538
 H        10.3989536574       -8.7362805881       -1.4152606961
 H        11.3632457529       -7.2748262734       -1.5442076398
 H        11.7930213323       -8.6410956602       -0.4295015869
 H        13.7933856610       -6.3692126669       -7.5741116251
 H        13.2208901810       -7.3984356342       -6.2227346490
 H        14.8300452927       -7.3567960592       -6.8675410076
 H        16.4449724881       -5.5813152239       -4.8285489186
 H        15.5827561367       -4.0885056418       -5.0601319480
 H        16.1792840283       -4.9402879485       -6.5358016844
 Na       10.8040351926       -5.9787387664       -5.5738809268
 Na      -13.8877338861        2.1064510898      -13.1459517109
