232

 C        14.0991579957       -3.2926923424       -7.2439383130
 C        13.4315410178       -4.3645936012       -6.2201043631
 O        12.2389100966       -4.3513471994       -6.0133444367
 C        14.3329326780       -5.3918185310       -5.6261916069
 C        13.8969276639       -5.9075610192       -4.1686081173
 O        12.7001044857       -6.0140852768       -3.9024280661
 C        14.8826368244       -6.2623944384       -3.1210776678
 C        14.1252226509       -7.2320642423       -2.0241202629
 C        13.4857897428       -8.4429887880       -2.7969450651
 O        14.2314501557       -8.9058360707       -3.6477037696
 C        12.0301051747       -9.0308069435       -2.6180022922
 C        11.3042373997       -8.7709088367       -4.0049114813
 O        10.4567551956       -7.9170109795       -3.8951107453
 C        11.5992742005       -9.4592345148       -5.3416565883
 C        10.2439886024       -9.5524612100       -6.1436922838
 C        10.3013651973       -8.7325656398       -7.4014433269
 O        10.9099241540       -7.6847602357       -7.4276338475
 C         9.2746737761       -9.0723614246       -8.5649493113
 C         7.9267646723       -8.1815721412       -8.1753850388
 O         6.9855140644       -8.6155828235       -7.5311848147
 C         8.0578611161       -6.6901941603       -8.5393407306
 C         7.0714680623       -5.7788681657       -7.7922692794
 C         7.5758839445       -5.1576550014       -6.4746335544
 O         8.6889375029       -5.3045291850       -5.9802650673
 C         6.5004614974       -4.4124118776       -5.7103289813
 C         5.7209127841       -3.5530134053       -6.7223688691
 O         6.3642609689       -2.7933835089       -7.4211687017
 C         4.1730232988       -3.4710289707       -6.7559925246
 C         3.5539145066       -2.8228196918       -8.0563117455
 C         3.5430342295       -3.9036583284       -9.0605642785
 O         4.5351684909       -4.4967902657       -9.4669148744
 C         2.1429893391       -4.4279306788       -9.5061960452
 C         1.3277401375       -3.2463235525      -10.1606087834
 O         1.8188044096       -2.1206622940      -10.2059463170
 C        -0.0167333960       -3.5544011427      -10.8046228330
 C        -0.9157316899       -2.2531995970      -10.7365888935
 C        -1.6036635074       -2.2032842244       -9.4018567810
 O        -1.3842637378       -2.9945178783       -8.5029646513
 C        -2.7922723653       -1.2163596243       -9.1597073974
 C        -3.9723364813       -1.6964199070      -10.0605711420
 O        -4.0924663115       -1.2450877396      -11.1756143289
 C        -4.7303056776       -2.9279985289       -9.5983860482
 C        -5.7945164120       -3.4713113731      -10.5649407073
 C        -7.0517394504       -2.6230200881      -10.3998869967
 O        -7.0659471851       -1.7218156136       -9.6042376748
 C        -8.2276214359       -2.6696844070      -11.5233274886
 C        -9.5846027649       -2.4158883359      -10.6445168984
 O        -9.7672435866       -3.2113980731       -9.7718133921
 C       -10.7114072077       -1.3482485850      -11.1347108560
 C       -11.8943079938       -2.0427045292      -11.8718422606
 C       -13.0205703928       -1.0214057827      -12.1476574167
 O       -12.7345558001        0.0378299194      -12.6235808012
 C       -14.5908271615       -1.3349273988      -11.9834659196
 C       -15.4048078610       -0.1932167776      -11.1302841119
 O       -15.6860527698        0.8494096183      -11.6940061468
 C       -15.7164787870       -0.4941880846       -9.6515134046
 C       -16.0056491480        0.6444975920       -8.6016623292
 C       -14.8788717634        1.7553863466       -8.6945696688
 O       -13.7190130981        1.4993875960       -8.4315155124
 C       -15.1562055311        3.3263435385       -9.0021411989
 C       -14.1229182625        3.5747627862      -10.1125578952
 O       -14.4289386447        3.3640415554      -11.2987068140
 C       -12.7250839550        4.0043258904       -9.6614290097
 C       -11.6427866111        3.8468555207      -10.6965962340
 C       -11.3652382824        5.0667496418      -11.6400627662
 O       -11.8338595839        6.1646569017      -11.5264526869
 C       -10.4535294027        4.7205325746      -12.8497344997
 C       -11.6117593245        4.1207704405      -13.7463454809
 O       -11.6460180622        2.9288398856      -13.9263295681
 C       -12.5232622384        5.2461592323      -14.2455082987
 C       -13.9614867495        4.8471367530      -14.8142997113
 C       -14.0785369847        3.6872015941      -15.8066950351
 O       -14.3189685567        2.5772088166      -15.3068812966
 C       -14.1550241712        3.7652337227      -17.3481821625
 C       -15.7846746450        4.3551604915      -17.6431284364
 O       -16.6032563096        4.0751381122      -16.8261112997
 C       -16.0036576161        5.0986716349      -18.9497829811
 C       -16.9026187188        6.2634584504      -18.6062693650
 C       -16.3106143162        7.1009831118      -17.4593028756
 O       -15.1293560477        6.9939232898      -17.0970381103
 C       -17.2335657671        8.2940049077      -16.7975796240
 C       -18.3082007528        7.6401167272      -15.7543318160
 O       -19.2718173113        7.0956621895      -16.2784809505
 C       -18.0428909257        7.4755134957      -14.3402377585
 C       -16.3880228361        9.3485756944      -16.0963803326
 C       -18.0506534726        8.9439101311      -17.8848592121
 C       -13.1807174258        4.7609952600      -17.9661336638
 C       -13.9876043197        2.2908512786      -17.9280897847
 C        -9.8349812620        5.9915423032      -13.3725393387
 C        -9.3523637631        3.6356051201      -12.7111084510
 C       -16.6379669304        3.6640617487       -9.4694322539
 C       -14.7438133951        4.1654846295       -7.6990674355
 C       -15.1792674707       -1.2818006557      -13.3843086513
 C       -14.7839674873       -2.6913148014      -11.3187527057
 C        -8.0572247543       -1.3997568718      -12.4034288540
 C        -8.1701061252       -3.9502355615      -12.3528910764
 C        -3.1005831090       -1.1615765953       -7.5878327903
 C        -2.3530161449        0.1925297161       -9.6472157903
 C         2.3745694479       -5.5766911247      -10.4812218082
 C         1.3182072579       -4.9170405895       -8.1495497205
 C         5.5525437356       -5.2642202528       -4.8132183591
 C         7.1205800825       -3.3678878367       -4.7485937846
 C        10.0474953476       -8.6410766064       -9.8338210292
 C         8.8956984414      -10.5197800102       -8.7354579233
 C        12.1091274416      -10.5329100151       -2.1947617562
 C        11.2525023180       -8.1982138597       -1.5224284613
 C        14.2684064196       -6.6626675248       -6.6521536731
 C        15.8716135131       -5.0300269457       -5.6359755957
 H        14.3983166082       -2.4320860144       -6.7702087400
 H        13.3647721922       -3.2281362223       -8.0215101651
 H        14.9045793340       -3.7833270860       -7.7344617229
 H        14.9864338742       -5.3676549310       -2.4442006132
 H        15.8083750226       -6.8107564809       -3.4990176063
 H        13.4761100536       -6.5526135311       -1.5221886059
 H        14.8815540902       -7.5269531102       -1.2434627248
 H        12.0350060398      -10.4336399313       -5.2358185057
 H        12.3893972581       -8.8614108941       -5.8519051193
 H         9.4698004998       -8.9990113568       -5.4655488441
 H         9.9312324488      -10.5682875340       -6.2373463339
 H         7.9570639251       -6.5293207611       -9.6636961280
 H         9.1089072068       -6.3814567899       -8.3459288661
 H         6.2364216177       -6.3587312662       -7.5549430813
 H         6.8155009159       -4.9062509201       -8.4740526672
 H         3.9086264450       -2.7958667612       -5.8884064223
 H         3.6798721479       -4.4974026205       -6.5320575630
 H         4.2851842851       -2.0945600319       -8.4510748875
 H         2.5695083890       -2.3705684859       -8.0100474937
 H        -0.5091097158       -4.3759001467      -10.3533982709
 H         0.3104914691       -3.8254448404      -11.8003343771
 H        -1.7171341099       -2.2074684209      -11.5713784917
 H        -0.4192380574       -1.2723917382      -10.8592807660
 H        -5.2725499327       -2.7201571767       -8.6351014897
 H        -3.9702658650       -3.7619404772       -9.3726661873
 H        -6.0741000979       -4.5250327138      -10.4263916006
 H        -5.4475562218       -3.3839658183      -11.6052824693
 H       -10.3433772355       -0.5521931631      -11.8644108470
 H       -11.2992033257       -0.8495703776      -10.3084508379
 H       -12.2499116336       -2.9454009282      -11.3387306982
 H       -11.3454366348       -2.4254475183      -12.7500725781
 H       -14.8934967818       -1.1014551889       -9.2802258346
 H       -16.5853468479       -1.2004136303       -9.6637193388
 H       -15.9345688760        0.2116719381       -7.5834849735
 H       -16.9532799938        1.1024905371       -8.8495185110
 H       -12.5918215445        3.3513105212       -8.8155705637
 H       -12.6596143103        4.9779889178       -9.0464502786
 H       -11.7743711341        2.8625954897      -11.2198553538
 H       -10.7044450416        3.7842118378      -10.1193511248
 H       -11.9394387625        5.7817049239      -15.0045569385
 H       -12.7557581281        5.9954009893      -13.4717590525
 H       -14.4376135852        5.7460091873      -15.2510792908
 H       -14.5849999610        4.4571402023      -14.0083156847
 H       -16.4977868328        4.4689035149      -19.6750192563
 H       -15.0966875566        5.3481061741      -19.5029510252
 H       -17.9253185761        6.1677242118      -18.1959842122
 H       -17.0534570459        6.8836994345      -19.5160193952
 H       -18.9074555415        6.9673008063      -13.9140849794
 H       -17.7080748305        8.4028638666      -13.8817211004
 H       -17.3086447058        6.7472530499      -14.1117926226
 H       -15.8168904842        8.8570814887      -15.2563276953
 H       -17.0173602546       10.1343320118      -15.7928935129
 H       -15.6961092577        9.8310918561      -16.8185717626
 H       -18.8743679415        8.4204599134      -18.3643704142
 H       -17.3127119544        9.2372571811      -18.6464101210
 H       -18.5671854322        9.7942771478      -17.5643157344
 H       -13.2327942399        4.9063393268      -19.0226850248
 H       -12.1641009967        4.3954084172      -17.8986799432
 H       -13.1710821219        5.7735607089      -17.6424913659
 H       -14.7895173637        1.7207215307      -17.3993499056
 H       -13.0012950117        1.9870885749      -17.6828406326
 H       -14.2653942840        2.1568908525      -18.9890672052
 H        -9.1024048025        6.3893052785      -12.5711657692
 H       -10.4656380944        6.8199578149      -13.5806334835
 H        -9.2270600284        5.8792446787      -14.2557169325
 H        -9.7039974327        2.6025354614      -12.8810804196
 H        -9.0962601166        3.5823068785      -11.6812221740
 H        -8.5422411789        3.8917194271      -13.3233823684
 H       -17.3783468105        2.9385473265       -9.0161711029
 H       -16.5704772849        3.5941907439      -10.5095429501
 H       -16.9987174111        4.5464957986       -9.1033246993
 H       -15.6697241797        4.0819213413       -7.0829024685
 H       -14.6623699472        5.2718450156       -7.8650577115
 H       -13.8558924928        3.7469819561       -7.1670475320
 H       -14.8934123332       -0.4079566388      -14.0685523430
 H       -16.2116189278       -1.3863736066      -13.2989051897
 H       -15.0217898270       -2.1396025396      -13.9987247004
 H       -14.3027808042       -3.4673781568      -11.8309031691
 H       -15.8977711958       -2.8136559780      -11.3473172023
 H       -14.4957619283       -2.6682805973      -10.2593799841
 H        -9.0333446885       -1.1266020930      -12.9488690250
 H        -7.2160410437       -1.5381298323      -13.1028468713
 H        -7.8230635195       -0.5321395613      -11.7315607564
 H        -8.9418269563       -3.7023539993      -13.0157276397
 H        -8.5254525120       -4.7992488987      -11.7269167591
 H        -7.1403277005       -4.0671405141      -12.7815852624
 H        -3.4758841515       -2.0047235945       -7.1362844992
 H        -3.6860912090       -0.3121494551       -7.4189881680
 H        -2.1643729374       -0.9482250700       -7.0800354230
 H        -1.2425430819        0.2587778782       -9.5669297670
 H        -2.6416359090        1.0039728519       -8.9871549673
 H        -2.8523896862        0.3677864578      -10.6153518612
 H         1.4805146680       -6.1693785074      -10.7152515538
 H         3.2195276996       -6.2202290039      -10.2706861291
 H         2.7462510516       -5.1039878376      -11.3810023596
 H         0.6524126139       -4.1350855732       -7.9923811091
 H         1.9818270758       -5.1842622586       -7.3617263465
 H         0.7413141565       -5.8466524804       -8.3120910446
 H         5.0404892451       -4.6483508340       -4.0696984407
 H         6.0253978389       -6.2273999295       -4.4257905952
 H         4.8331624601       -5.6943179666       -5.4890733084
 H         7.9482843130       -2.7175150229       -5.0582691106
 H         7.4711882450       -3.8627243977       -3.7623348295
 H         6.3457922639       -2.6713827628       -4.4381673860
 H         9.4119389236       -8.5153973049      -10.6734288802
 H        10.8488979597       -9.2722981007      -10.1597691684
 H        10.5272896941       -7.6697853014       -9.6403762974
 H         8.2256380395      -10.8631307781       -7.9437555545
 H         9.7929174254      -11.1464750000       -8.6402456197
 H         8.4455021398      -10.7936614705       -9.6952976165
 H        12.8903981683      -10.8466597520       -1.4824156579
 H        12.4384059020      -11.1137826741       -3.0478074840
 H        11.1149762345      -10.9640765097       -1.9369192337
 H        10.1968431310       -8.4265960209       -1.6160300473
 H        11.4053174164       -7.1363506523       -1.8278535586
 H        11.5527484798       -8.3769513958       -0.5235401451
 H        14.1640818454       -6.3486426639       -7.6749135688
 H        13.4507860089       -7.2888061072       -6.3663789709
 H        15.1794658693       -7.2403060809       -6.6989434729
 H        16.3473481591       -5.8845356202       -5.2166357885
 H        16.1348998080       -4.2097909431       -4.9499539669
 H        16.2193910681       -4.8435086918       -6.6972350999
 Na       10.7469682824       -5.8945074715       -5.5058959815
 Na      -13.7545199680        2.1373316647      -13.0403102903
