232

 C        14.0711824638       -3.2928591469       -7.1899511751
 C        13.5041917790       -4.4111598282       -6.1934172952
 O        12.2876609122       -4.3599794325       -6.0499504326
 C        14.4972143701       -5.4095220056       -5.5283818246
 C        13.8904983073       -5.8743389490       -4.1249303364
 O        12.6819926259       -6.0536730469       -4.0895968677
 C        14.7976487598       -6.1704665706       -2.9703126315
 C        14.0721580883       -7.2200034068       -2.0569692831
 C        13.4823527977       -8.4224256927       -2.9029810613
 O        14.0279192086       -9.0001560828       -3.7960057626
 C        12.0174356865       -8.9027307319       -2.6330227402
 C        11.1797241384       -8.6821602620       -4.0129339022
 O        10.2603595764       -7.8949087757       -4.0045457751
 C        11.4724238033       -9.4363060775       -5.2842177159
 C        10.2173143253       -9.5695598056       -6.1601339483
 C        10.2677903927       -8.6591456757       -7.4279146904
 O        10.8849755391       -7.5978441488       -7.4560177387
 C         9.3630543711       -9.0590498335       -8.6928437420
 C         8.1011066481       -8.1713859043       -8.1356359342
 O         7.2028906525       -8.7537992013       -7.6133898344
 C         8.1157393315       -6.6573815441       -8.4463709721
 C         7.0702711470       -5.8931052862       -7.6625248531
 C         7.5615702927       -5.2469533010       -6.3137613149
 O         8.6703517003       -5.3154447889       -5.9121469686
 C         6.4169008261       -4.2730075901       -5.6054551931
 C         5.6912941016       -3.3781152396       -6.7030779440
 O         6.3103661332       -2.6849392145       -7.4710086342
 C         4.2037939593       -3.3547716997       -6.7040576335
 C         3.6489133582       -2.7693296765       -7.9815040227
 C         3.5911709120       -3.9238757885       -9.0403668891
 O         4.5745898784       -4.4632200492       -9.5001470935
 C         2.1778106487       -4.3910578012       -9.5476262217
 C         1.4072254545       -3.2493090308      -10.1978013059
 O         1.8170211536       -2.1250572976      -10.1970205190
 C         0.0019773464       -3.6173568398      -10.9588029773
 C        -0.9731722914       -2.3653005238      -10.7656781833
 C        -1.6182534833       -2.2154393232       -9.3553185746
 O        -1.2232121867       -2.9022740868       -8.3707591995
 C        -2.7438551279       -1.1666055975       -9.2559564170
 C        -3.9534118109       -1.7285162759      -10.1228973051
 O        -4.2645939035       -1.2217594885      -11.1967311309
 C        -4.6005558722       -3.0370390853       -9.6645336719
 C        -5.7428871562       -3.4392876947      -10.6730758729
 C        -7.0708870229       -2.5081459827      -10.5198142938
 O        -7.1097989152       -1.8190070411       -9.5719213419
 C        -8.3150383581       -2.6206007635      -11.5648084443
 C        -9.6540091675       -2.5094016406      -10.7280855534
 O        -9.8885112169       -3.1246996805       -9.6862459964
 C       -10.6419795793       -1.4928277543      -11.1383345894
 C       -11.9437992333       -2.0369472078      -11.8810219932
 C       -12.9929613924       -0.9601538699      -12.1488639785
 O       -12.5884854413        0.0596781931      -12.5764159734
 C       -14.6470220734       -1.2865363338      -11.9876635412
 C       -15.2543831362       -0.1158959111      -11.1098146186
 O       -15.6265212893        0.9384715866      -11.6800754326
 C       -15.6295094572       -0.4143503296       -9.6619545857
 C       -16.0571449424        0.7827520218       -8.6437918869
 C       -14.9901647637        1.8390776700       -8.6212834878
 O       -13.8686977306        1.4320011677       -8.3785288307
 C       -15.1740762560        3.3885341924       -8.8904214130
 C       -14.0983614047        3.5832607226      -10.0468228528
 O       -14.4948093344        3.4717235180      -11.1914587948
 C       -12.6307196347        3.9078287196       -9.6730490791
 C       -11.4929189049        3.7923305836      -10.6909738642
 C       -11.2531546858        4.9467043902      -11.6225418740
 O       -11.7034570272        6.0706117083      -11.4562884275
 C       -10.4315704496        4.6987412099      -12.9836362658
 C       -11.6126571095        4.0908997558      -13.8559033998
 O       -11.7937077416        2.8772618306      -13.8948317162
 C       -12.5272119906        5.1671427783      -14.2980871491
 C       -14.0070958787        4.8528575532      -14.7946007060
 C       -14.1214385705        3.6459734475      -15.7436952979
 O       -14.2487140941        2.5594997914      -15.1961587158
 C       -14.2137595079        3.6819295584      -17.3086426706
 C       -15.6402603595        4.1422241692      -17.6419648948
 O       -16.5115481603        3.9801782970      -16.8458240759
 C       -16.0193343842        5.0592662934      -18.9351248132
 C       -16.9274528139        6.2904812281      -18.5791027956
 C       -16.3930113847        7.1343399635      -17.4008164433
 O       -15.2423027411        7.0269291186      -17.0312060265
 C       -17.2708435618        8.2796839301      -16.7141298096
 C       -18.2750994557        7.5086570819      -15.7006744738
 O       -19.2827354263        6.9498084942      -16.1304011793
 C       -17.8352768004        7.4311861393      -14.2026388230
 C       -16.4105420544        9.2141628803      -15.8022112303
 C       -17.9795937754        9.0186665337      -17.8856463473
 C       -13.1689024167        4.6885102779      -17.9522761325
 C       -14.1024177617        2.2204079463      -17.8003390311
 C        -9.8751457684        6.1270938291      -13.4151963000
 C        -9.3160628142        3.6624367313      -12.7841961710
 C       -16.4946918154        3.8014445417       -9.5759908101
 C       -14.7783582660        4.2129749137       -7.6664457570
 C       -15.1782422720       -1.2181276668      -13.4224115254
 C       -14.8460456033       -2.6708727505      -11.3533469403
 C        -8.0424009162       -1.4425212600      -12.6042846668
 C        -8.4104017385       -3.9581578872      -12.3360405216
 C        -3.2166922660       -1.1583289253       -7.7873420594
 C        -2.3305386593        0.2528494198       -9.8941441479
 C         2.3016106939       -5.6018201433      -10.4610802858
 C         1.2203321023       -4.9528575996       -8.2630746855
 C         5.5131910987       -5.3648572902       -4.7758407390
 C         7.1138384586       -3.3324868946       -4.6343067511
 C         9.9721731152       -8.6687553779      -10.0266334919
 C         8.8906121246      -10.4787242716       -8.8542507828
 C        12.0282758588      -10.3950965438       -2.2879603741
 C        11.1949681575       -8.1567679222       -1.5589300856
 C        14.4526851172       -6.5755356493       -6.5955898180
 C        16.0437857174       -4.9386832049       -5.6363591434
 H        14.4283121152       -2.5211474680       -6.5608701267
 H        13.3560783628       -3.1109817893       -7.9501361453
 H        14.9148310118       -3.6995095987       -7.7488049273
 H        15.1366354529       -5.2786202093       -2.3112812619
 H        15.5654555761       -6.8315520836       -3.4068307962
 H        13.2908641407       -6.7120374184       -1.5193478543
 H        14.7788188106       -7.5027771716       -1.2545097618
 H        11.9704823724      -10.3906915188       -5.1641615762
 H        12.2469104668       -8.8370576762       -5.7903156022
 H         9.3571423936       -9.4287871904       -5.5265024501
 H        10.2454230873      -10.6303811558       -6.5130098203
 H         7.8372884304       -6.5638185158       -9.5004953915
 H         9.0941074615       -6.2604827076       -8.4418390072
 H         6.1807128619       -6.5518095938       -7.6658434503
 H         6.8944454745       -4.9326221696       -8.1861927280
 H         3.9511162163       -2.6943435474       -5.7935461559
 H         3.8357750002       -4.3691645305       -6.4958464662
 H         4.4106470109       -1.9917099006       -8.2888289600
 H         2.6943396358       -2.3182226614       -7.9759019449
 H        -0.4692113183       -4.4854408556      -10.6276692560
 H         0.2789839980       -3.7728241568      -12.0153715839
 H        -1.8531360846       -2.4107888731      -11.5255248528
 H        -0.5930398499       -1.3470416499      -10.9826091631
 H        -5.0795019389       -3.0447019871       -8.6744025298
 H        -3.7909124579       -3.8300220311       -9.6360144159
 H        -6.0923156869       -4.5776337407      -10.5323633423
 H        -5.4126451932       -3.3669477638      -11.7257061808
 H       -10.2588063366       -0.6188667622      -11.7354252241
 H       -11.1482803268       -1.1700040979      -10.1382642354
 H       -12.2776225344       -2.9155208158      -11.3569946303
 H       -11.4655956872       -2.4454079434      -12.7727434703
 H       -14.7876577353       -0.9377827648       -9.2069441772
 H       -16.4194628438       -1.1706289579       -9.7220491269
 H       -16.0559738521        0.3692926449       -7.6323316480
 H       -16.9311907403        1.2327673678       -8.9658931232
 H       -12.4644330046        3.3188604489       -8.7598809620
 H       -12.6962762778        4.9217340321       -9.0838711904
 H       -11.6969891269        2.7819519096      -11.3276826002
 H       -10.5437889777        3.6526566092      -10.1226788924
 H       -12.0694819555        5.7676507179      -15.0915573644
 H       -12.6838525542        5.8901842774      -13.4861827202
 H       -14.0617308564        5.6815868705      -15.4808533761
 H       -14.8772443391        4.8202025983      -14.0861989431
 H       -16.6012522379        4.4025870340      -19.6054345225
 H       -15.2028521135        5.3076367090      -19.6305126435
 H       -18.0504760169        6.3299858292      -18.3947935570
 H       -16.8063259442        7.0409691844      -19.3985123108
 H       -18.6251766786        7.0203491711      -13.6139389813
 H       -17.3168300097        8.2804042322      -13.8337185807
 H       -17.1585411251        6.6363442630      -14.0625074276
 H       -16.0703786098        8.7367909787      -14.9075021523
 H       -16.8288275224       10.2580748317      -15.7230986452
 H       -15.5358620468        9.3879056972      -16.4455405315
 H       -18.9410881868        8.6397619513      -18.3151968948
 H       -17.3438085660        9.3762156293      -18.7175137033
 H       -18.3756611937        9.9005246667      -17.4209882513
 H       -12.9907631117        4.6851535355      -19.0057082593
 H       -12.1604536832        4.3832803742      -17.5589865764
 H       -13.2758155462        5.7646572443      -17.8229329700
 H       -15.1159562272        1.8030719992      -17.8305096601
 H       -13.4283362388        1.7259397173      -17.1001360492
 H       -13.7653686718        2.1760254050      -18.7932098919
 H        -9.4289330609        6.6900028695      -12.6000998851
 H       -10.6546385540        6.7553120570      -13.8521809072
 H        -9.1408593982        6.1527365227      -14.1854486536
 H        -9.5794472346        2.6236591272      -12.9477755297
 H        -9.1104342667        3.6438721178      -11.6986280170
 H        -8.4627564574        3.9845983384      -13.3710450781
 H       -17.4606840509        3.5820202389       -9.0038680306
 H       -16.3820320349        3.3996986001      -10.5937293323
 H       -16.4396732872        4.8701707189       -9.5742764054
 H       -15.6692060420        4.2297004895       -7.0081051996
 H       -14.6267263134        5.2482718171       -7.8560945032
 H       -13.9023334570        3.6582600261       -7.1539543358
 H       -14.6337477820       -0.5590913260      -14.0467620576
 H       -16.2176736612       -0.9376117896      -13.4768498031
 H       -15.2210375449       -2.1657037185      -13.9802063138
 H       -14.4109790196       -3.4255169109      -12.0350723731
 H       -15.9211826735       -2.7629065471      -11.3326976335
 H       -14.4302567661       -2.8373561554      -10.3668113999
 H        -8.9497193121       -1.1760573940      -13.1734289205
 H        -7.2144909851       -1.8875715377      -13.2262725892
 H        -7.6325523685       -0.5513800287      -12.1907358332
 H        -8.9935174920       -3.5814893188      -13.2195638255
 H        -9.1099648982       -4.6439138949      -11.7798989489
 H        -7.3598358261       -4.3737898747      -12.4770267812
 H        -3.2842480795       -2.1863027982       -7.4435706683
 H        -4.1157481454       -0.6041967737       -7.5161755638
 H        -2.3469850246       -0.7880264509       -7.1964821595
 H        -1.1736094834        0.4442356913       -9.7029034147
 H        -2.7800748995        1.0409624455       -9.3856519220
 H        -2.7419984547        0.2785174584      -10.8957513513
 H         1.3367055643       -6.2204865043      -10.5020660724
 H         3.1349579633       -6.2506675163      -10.1380106981
 H         2.6538214626       -5.3781815132      -11.4710907960
 H         0.8455499799       -4.1335560949       -7.7061242915
 H         1.8601284171       -5.6918343916       -7.7853886325
 H         0.3670435425       -5.6054997422       -8.5922726986
 H         4.4553133840       -5.0327940003       -4.5775627663
 H         6.0388822408       -5.7332126847       -3.9167533848
 H         5.4702872957       -6.2822719208       -5.3973456542
 H         7.9576708946       -2.7874999951       -5.0659872387
 H         7.4842281601       -3.8309496229       -3.7351544827
 H         6.4656000141       -2.4575260128       -4.2495692694
 H         9.3423251767       -8.6020243370      -10.8841467914
 H        10.8701470240       -9.2855771985      -10.2835142057
 H        10.3990807062       -7.6963672635       -9.9014829561
 H         8.2486612636      -10.7908800324       -8.0042673379
 H         9.7322151783      -11.1595067259       -8.8118164586
 H         8.3627500090      -10.7026875025       -9.7918168016
 H        12.7200726904      -10.6549480911       -1.5365988817
 H        12.3568270715      -11.1187550236       -3.0568014017
 H        10.9892128302      -10.6884445109       -1.9661779274
 H        10.1733167765       -8.5569394361       -1.5818831266
 H        11.1810029132       -7.1377219118       -1.9397065766
 H        11.6090676696       -8.1569787624       -0.5284848375
 H        14.7832265230       -6.2428392329       -7.5835436759
 H        13.4124089204       -6.8677872238       -6.6453892837
 H        15.1078825932       -7.4674952925       -6.3644700624
 H        16.6606647749       -5.8375262316       -5.4250779477
 H        16.3202589758       -4.2501290038       -4.8389014596
 H        16.2498593681       -4.5084843682       -6.6197455337
 Na       10.7345300506       -6.0164554471       -5.3980360088
 Na      -13.6934770533        2.0693653819      -12.9977673446
