232

 C        14.0712864817       -3.1744811888       -7.1654437810
 C        13.6179823441       -4.2574222219       -6.2224723655
 O        12.4243011041       -4.4322181382       -6.0862372610
 C        14.5692127266       -5.3735878145       -5.6144486805
 C        13.9552649846       -5.8770558608       -4.3174341829
 O        12.7835755895       -6.1070138250       -4.2162351113
 C        14.7639360087       -6.2455181720       -2.9674466858
 C        13.9808213942       -7.3561725499       -2.1952934121
 C        13.3387060941       -8.3511324377       -3.0529875306
 O        14.0205845185       -8.9354064703       -3.8829834957
 C        11.7486819757       -8.7815249657       -2.7069093266
 C        10.9936099661       -8.5874682195       -3.9814614336
 O        10.0452385186       -7.7844570234       -4.0928614175
 C        11.4182349087       -9.4414381610       -5.2418678970
 C        10.3295454630       -9.6425962811       -6.3294469564
 C        10.3107854683       -8.7156506761       -7.5008889684
 O        10.8229665597       -7.5726943205       -7.3923763764
 C         9.4623355537       -8.9812410333       -8.6967895827
 C         8.1812804155       -8.1888443189       -8.3286275734
 O         7.3927627440       -8.7824095589       -7.6251918255
 C         8.1412819686       -6.6450158226       -8.3782826143
 C         7.0325834266       -5.8966918232       -7.5653542220
 C         7.4969149647       -5.1464173975       -6.3382558115
 O         8.5863157831       -5.3157650943       -5.7808812028
 C         6.4870517003       -4.3047702147       -5.5571843517
 C         5.6966141713       -3.3201108142       -6.6007221266
 O         6.3864553839       -2.6986394375       -7.3668930639
 C         4.0974227916       -3.2074804004       -6.6106298709
 C         3.6522994391       -2.7811159491       -7.9765270674
 C         3.4993662382       -3.9812649952       -9.0828402691
 O         4.5703061281       -4.3820523977       -9.4385826816
 C         2.1519602609       -4.5150017891       -9.5649626463
 C         1.3487081560       -3.2375972315      -10.2480612690
 O         1.7873794987       -2.1271583236      -10.2125992949
 C         0.0785359433       -3.5550270828      -10.9633260298
 C        -0.9619947166       -2.5365738438      -10.8287231683
 C        -1.5404500321       -2.2152186627       -9.3989844211
 O        -1.1049698147       -2.7329277366       -8.4092905066
 C        -2.7123578643       -1.2387153397       -9.3529459588
 C        -3.9441379453       -1.8376094351      -10.2984000177
 O        -4.4226294401       -1.1550939002      -11.1795157390
 C        -4.6402230402       -3.1282477275       -9.8851385086
 C        -5.8131590534       -3.4028281104      -10.7918677030
 C        -7.0466854211       -2.5663613486      -10.5437158920
 O        -7.2152530888       -1.8428232366       -9.5584848558
 C        -8.2697420550       -2.6278732724      -11.5846084527
 C        -9.6665719395       -2.3796159352      -10.6916715423
 O        -9.8127466437       -3.1600035987       -9.7675895906
 C       -10.8053234578       -1.4061651361      -11.1270397888
 C       -12.0520301620       -2.1139903624      -11.8454748999
 C       -12.9949891031       -0.9707251419      -12.1165768787
 O       -12.5678395812        0.1549805713      -12.4881491359
 C       -14.5048303527       -1.1941100932      -11.9834194415
 C       -15.1760981288       -0.0290928888      -11.0956901326
 O       -15.4094074140        1.0290274588      -11.6133001987
 C       -15.5922057436       -0.3528453438       -9.6202214501
 C       -16.1824729495        0.8765957438       -8.9840420664
 C       -14.9790613993        1.8757075438       -8.5940660524
 O       -13.9062681262        1.4392330538       -8.2532435816
 C       -15.0896927970        3.4649451252       -8.9392975705
 C       -13.9711592639        3.6643376502      -10.0775156378
 O       -14.3095878522        3.5651475009      -11.2306049547
 C       -12.4926104917        3.8457327315       -9.6505741125
 C       -11.3963627075        3.6178056245      -10.7005234087
 C       -11.1963218467        4.8573823408      -11.5626324731
 O       -11.6150666587        5.9505374206      -11.2556008058
 C       -10.4351300669        4.6940093919      -12.9861850817
 C       -11.6622933576        4.1985510692      -13.8813524127
 O       -11.8093387334        2.9669862397      -13.8725617106
 C       -12.5806007248        5.2837632087      -14.6157433573
 C       -14.0850597462        4.9096235797      -14.9389764972
 C       -14.1866521009        3.5167003195      -15.7271071163
 O       -14.1958149018        2.4643450895      -15.1056163216
 C       -14.2518815024        3.5892072210      -17.2442280276
 C       -15.6852991837        4.2721947583      -17.5276436980
 O       -16.5688260755        3.8251136421      -16.8220893380
 C       -16.0253242602        5.0845267256      -18.8014124218
 C       -16.9358236126        6.2387462870      -18.5720602947
 C       -16.3590162706        7.2119187748      -17.2986205117
 O       -15.2760172479        6.9860005065      -16.8678940010
 C       -17.2442962227        8.2568465595      -16.5717487170
 C       -18.2179258360        7.3475923865      -15.6600209714
 O       -19.2563278532        6.8583107394      -15.9884250840
 C       -17.8410006073        7.2686658719      -14.1553662193
 C       -16.2777381038        9.1164147013      -15.8309593040
 C       -17.9680379993        9.0553383240      -17.6868680492
 C       -13.0946789464        4.4615385288      -17.8023771492
 C       -14.1510159534        2.2075519846      -17.8284414253
 C        -9.9298538534        6.0396190622      -13.4727559603
 C        -9.2084724306        3.7154578595      -12.8448666045
 C       -16.4762314761        3.8880341885       -9.5052434982
 C       -14.8928424528        4.2069910424       -7.5976246859
 C       -15.1247948277       -1.1012337556      -13.3993311098
 C       -14.8922062558       -2.6117414640      -11.4110759992
 C        -8.0021011586       -1.6089175980      -12.6573429754
 C        -8.5882370082       -4.0397756227      -12.3022516465
 C        -3.3154425318       -0.9856031250       -7.9798441892
 C        -2.3282931015        0.1431930239       -9.9342716646
 C         2.2359835864       -5.6910811077      -10.5238189037
 C         1.2847094479       -4.8689636154       -8.3845441540
 C         5.5573911767       -5.2986183907       -4.8562775862
 C         7.1463064317       -3.3861579495       -4.5280390009
 C         9.9204366122       -8.4762501739      -10.1219049744
 C         8.9562670315      -10.5283082767       -8.7962921761
 C        11.9349879018      -10.2942822934       -2.3718096358
 C        11.1688703688       -8.0472917536       -1.4739517511
 C        14.5364070020       -6.6194996404       -6.4760179279
 C        15.9965962779       -4.8653587810       -5.3640282438
 H        14.8044615370       -2.6134785912       -6.4825357387
 H        13.2645303526       -2.7377040672       -7.7421123954
 H        14.7062945194       -3.6999662050       -7.8860627889
 H        14.6869179433       -5.3432534628       -2.3613723286
 H        15.7258660074       -6.6859045215       -3.0228469739
 H        13.2656544372       -6.8672645219       -1.4822846341
 H        14.6281361913       -7.8542713960       -1.5186954456
 H        11.8584443712      -10.4233512754       -4.9682985598
 H        12.2846881231       -8.9613135896       -5.7004685559
 H         9.4519622423       -9.4054103931       -5.8159700568
 H        10.2942257500      -10.7318168132       -6.5896862437
 H         8.1456640217       -6.2774774439       -9.3454532735
 H         9.1518922215       -6.4248450758       -8.0740971086
 H         6.4434142005       -6.8319678400       -7.1560556125
 H         6.4004072637       -5.2198700835       -8.1207147261
 H         3.7614104846       -2.5309410025       -5.8239962343
 H         3.7324317733       -4.1965454125       -6.4174716692
 H         4.3157295833       -1.9903999734       -8.2800984750
 H         2.6268050487       -2.3670413993       -7.9499344187
 H        -0.2762290972       -4.5694559581      -10.6156611843
 H         0.2465282780       -3.6494641098      -12.0462863664
 H        -1.7282828875       -2.8145403728      -11.5193476309
 H        -0.6761390756       -1.5619100874      -11.2881022818
 H        -5.0705928730       -3.1265418676       -8.8962311145
 H        -3.9905052871       -3.9598828762       -9.8973840712
 H        -6.1077270962       -4.4642704047      -10.6517560891
 H        -5.6606076256       -3.2627598494      -11.9116268266
 H       -10.5055363185       -0.6711986389      -11.8517736953
 H       -11.2544095733       -0.9615603917      -10.2677465828
 H       -12.4307515040       -2.9562039562      -11.2405786015
 H       -11.6328505888       -2.6073534553      -12.6983529508
 H       -14.6498766623       -0.5621625098       -9.0585733703
 H       -16.1900973591       -1.2381851134       -9.4922769691
 H       -16.5670630234        0.5193932290       -8.0709200934
 H       -16.8854221425        1.3922708639       -9.6707005076
 H       -12.3238293093        3.4777765425       -8.5996841580
 H       -12.5874520619        4.8791719278       -9.3574815846
 H       -11.6559633373        2.7802636374      -11.3287881229
 H       -10.4015936521        3.4054485454      -10.1942613107
 H       -12.0346064989        5.8049896358      -15.4121009549
 H       -12.7614544090        6.0757391979      -13.8880022049
 H       -14.4368823069        5.8047319258      -15.4483492340
 H       -14.6220851553        4.7402657189      -13.9758454452
 H       -16.4702424547        4.3258927931      -19.4988218797
 H       -15.0925291582        5.2656865175      -19.3447932834
 H       -17.8990077659        5.9475410089      -18.1489253796
 H       -17.2033428469        6.8811297431      -19.4382603101
 H       -18.5115920377        6.6216556237      -13.6777510293
 H       -17.6238372315        8.2364284590      -13.7725830144
 H       -16.8829914867        6.7405755656      -13.9743034693
 H       -15.7038967042        8.5652738894      -15.1036337295
 H       -16.8084919998       10.0433858731      -15.4702719831
 H       -15.6587897868        9.5186300705      -16.6243453225
 H       -18.8360784431        8.5655977136      -18.1158776541
 H       -17.3582237939        9.4415404066      -18.5009434851
 H       -18.5103811064        9.9670654323      -17.1874340550
 H       -12.8302139687        4.3496671766      -18.8760782247
 H       -12.1134179558        4.3875427348      -17.3056225312
 H       -13.3424017744        5.5473628095      -17.8701987631
 H       -15.0653643508        1.8758125553      -18.2073187628
 H       -13.7405412174        1.5855655575      -17.0171352687
 H       -13.4372504595        2.2539302248      -18.6407249432
 H        -9.4593764422        6.6104325514      -12.7697093273
 H       -10.7503526158        6.5886787267      -13.9512241005
 H        -9.2193509587        6.0068930114      -14.3045264115
 H        -9.5551534800        2.6994774315      -12.9006425713
 H        -8.7547293981        3.7169805634      -11.8266200834
 H        -8.4974719616        3.9524591859      -13.6882569593
 H       -16.9917461086        4.2084396843       -8.6715871105
 H       -16.9960214220        3.1176830303      -10.1558834127
 H       -16.2706034157        4.9531070003      -10.0549931300
 H       -15.7534462857        4.1851792493       -6.9406358839
 H       -14.8265586487        5.2732433080       -7.8136316640
 H       -14.0393553512        3.7818298035       -7.1337055477
 H       -14.6577277807       -0.4880261989      -14.0999134727
 H       -16.2049860148       -0.7268317868      -13.4080815477
 H       -15.2220533737       -2.0636409427      -13.9051835646
 H       -14.5857538009       -3.3892491422      -12.1787019777
 H       -15.9425934765       -2.5663739396      -11.3200132749
 H       -14.3840263979       -2.9351623043      -10.4993443780
 H        -8.8197898815       -1.7042919408      -13.2770440194
 H        -7.0753824777       -1.8782164455      -13.1397357049
 H        -7.8908889673       -0.5637324348      -12.3948509005
 H        -9.2075882766       -3.8318165905      -13.2555660964
 H        -9.1761337781       -4.6315752188      -11.5952368696
 H        -7.6007695593       -4.4611035779      -12.3769389349
 H        -3.1990685204       -2.0377223042       -7.4682009463
 H        -4.4177480527       -0.6975649326       -7.9209404601
 H        -2.6822107578       -0.3246620192       -7.3764488519
 H        -1.4347213479        0.3864522354       -9.5143823575
 H        -3.0739639330        0.9552258801       -9.6267594885
 H        -2.3797581266        0.1042098623      -11.0176198726
 H         1.2929922745       -6.2011534978      -10.7812814180
 H         2.9713569673       -6.4442503012      -10.1375281495
 H         2.8049441033       -5.3909186220      -11.4488323755
 H         1.4526761491       -4.1117179293       -7.5333642711
 H         1.5040522337       -5.9457145800       -8.2165464775
 H         0.2438177054       -4.8688092033       -8.6179644356
 H         4.5577533313       -5.0735883724       -5.2225541113
 H         5.5922911852       -5.0741843661       -3.8307373451
 H         5.7811067301       -6.3810364285       -4.8824090003
 H         7.7784322307       -2.7086699261       -5.1332079647
 H         7.6867097058       -3.7746317777       -3.7172222830
 H         6.4647568825       -2.6303990791       -4.0874787855
 H         9.1474190669       -8.5751973821      -10.9355435990
 H        10.7632150121       -9.1125728930      -10.3783470180
 H        10.2826587567       -7.4457850872      -10.2571575743
 H         8.4038418751      -10.8908098482       -7.9304787031
 H         9.7414128475      -11.2768521319       -8.9528579363
 H         8.2851706759      -10.5969034283       -9.6486874954
 H        12.4943340702      -10.3250112619       -1.4412328992
 H        12.5832791683      -10.9397881649       -2.9684010521
 H        11.0263810037      -10.7949463437       -2.1933883747
 H        10.2988893403       -8.6079601338       -1.0904794113
 H        10.9412517520       -7.0216195011       -1.6678714837
 H        12.0141420254       -8.0686311490       -0.7212949891
 H        15.2913173063       -6.7077998141       -7.2918386740
 H        13.4941420575       -6.6524866112       -6.9261174474
 H        14.6784401246       -7.5247307878       -5.8453272283
 H        16.7490218781       -5.6164005363       -5.0148577844
 H        15.9023102782       -4.1559642747       -4.5314687443
 H        16.3587170363       -4.3099537758       -6.2133382445
 Na       10.7423842982       -6.2183414878       -5.3768015734
 Na      -13.7784756973        1.9838230511      -12.9252979728
