232

 C        14.3675711390       -3.1156266566       -6.9099511559
 C        13.6550305340       -4.3281516714       -6.2407796621
 O        12.4314526717       -4.4593934037       -6.3632551504
 C        14.5818351744       -5.3084443913       -5.5337939992
 C        13.8884581188       -5.9689747745       -4.2590001761
 O        12.6927008377       -6.3046853880       -4.2848870597
 C        14.7186293296       -6.3630066623       -3.1299074832
 C        13.9468608391       -7.2530411703       -2.1940022041
 C        13.1574222306       -8.3238667062       -3.0823065087
 O        13.6714238560       -8.7329264622       -4.1019604137
 C        11.6835887594       -8.7774170808       -2.6646953823
 C        10.7951348494       -8.6564889384       -4.0712409236
 O         9.8288495448       -7.9416167514       -3.9964558198
 C        11.3328029279       -9.4268252457       -5.2468866889
 C        10.4284002292       -9.7257452469       -6.4551217527
 C        10.3640668990       -8.6131779753       -7.4870190514
 O        11.0356475354       -7.6209043387       -7.4952246398
 C         9.4352270741       -8.9213047613       -8.7234382031
 C         8.1610901457       -8.0946036952       -8.1208854862
 O         7.2706888489       -8.7178594738       -7.6287466670
 C         8.1469891617       -6.5887427831       -8.2218750428
 C         7.0147437798       -5.9954889920       -7.4382567648
 C         7.4948547506       -5.2857201254       -6.1378898526
 O         8.6418364260       -5.2306730509       -5.8012261401
 C         6.4307665419       -4.3749222176       -5.4589136004
 C         5.7344966907       -3.2251392265       -6.5834028478
 O         6.4296427973       -2.5837858824       -7.3089136209
 C         4.1806305602       -3.0808415292       -6.6091545236
 C         3.5155124521       -2.7887076493       -8.0158827517
 C         3.5698545761       -3.9849738275       -8.9686805533
 O         4.5795726264       -4.5462207697       -9.3816267787
 C         2.1219045102       -4.3813374454       -9.5392381474
 C         1.3478602723       -3.2844177147      -10.2014729336
 O         1.7427675907       -2.1475250563      -10.2852041010
 C         0.0814667196       -3.7045135007      -10.9836510433
 C        -1.0746550191       -2.5745042146      -11.0163721153
 C        -1.6771922101       -2.2461417221       -9.6254462276
 O        -0.9495244820       -2.4710182160       -8.6339605457
 C        -2.8779936128       -1.2907124125       -9.5438519758
 C        -4.1031738504       -1.7313916165      -10.4610313439
 O        -4.5533198931       -1.0429325867      -11.3743512268
 C        -4.6826240625       -3.1396274493      -10.1686783888
 C        -5.9617460963       -3.5051213199      -11.0491983517
 C        -7.1933990371       -2.6011296998      -10.6535556713
 O        -7.2365831744       -2.0069898275       -9.6142679719
 C        -8.3463914526       -2.7863833528      -11.5880314008
 C        -9.6281787167       -2.4316088818      -10.7008089469
 O        -9.9772006478       -3.1234243538       -9.7630982698
 C       -10.6166589790       -1.3389699118      -11.1450729102
 C       -11.9778837773       -1.9644826862      -11.5870475953
 C       -12.9517021046       -0.9108937766      -12.0262964857
 O       -12.5754460316        0.1725813829      -12.3348634260
 C       -14.4935546892       -1.2017179474      -12.0132122852
 C       -15.0435251321       -0.0950114454      -11.0916872536
 O       -15.0084737892        1.0880552348      -11.4860411117
 C       -15.5802038257       -0.2884385988       -9.6956736802
 C       -16.2141265314        1.0763910944       -9.1574815410
 C       -15.0351873636        2.0165929505       -8.7249679720
 O       -14.1749529144        1.5682556371       -8.0049293823
 C       -14.9968120014        3.6344262056       -9.0047771746
 C       -13.8240840075        3.7495801974       -9.9964214317
 O       -14.0106382300        3.8343398897      -11.2251227555
 C       -12.3205290540        3.6786705520       -9.5268084536
 C       -11.3883905141        3.4871296065      -10.7261137816
 C       -11.1325178333        4.8758161646      -11.4266695543
 O       -11.4068440294        5.9621995651      -10.9313679495
 C       -10.5673578184        4.7659226872      -12.9512024220
 C       -11.6296653572        4.2658354268      -13.9217949771
 O       -11.9394517002        3.0841243202      -13.8923031598
 C       -12.4842803933        5.3255844679      -14.7405167230
 C       -13.8931022541        4.6113957573      -14.8455771571
 C       -14.1560694258        3.3319083851      -15.6224501712
 O       -14.3705265154        2.2216351292      -15.1148941231
 C       -14.3352175253        3.5078990939      -17.2067565192
 C       -15.6791001334        4.0915253417      -17.4025532425
 O       -16.6647382475        3.7504660544      -16.7995831023
 C       -15.9257060793        5.1172331785      -18.6286487363
 C       -17.0219071444        6.0901257598      -18.2209877905
 C       -16.3144402241        7.0404267504      -17.1564835710
 O       -15.1709541784        6.7759847261      -16.7087927914
 C       -17.1657233139        8.1429983031      -16.3682117972
 C       -18.0404654778        7.2678899009      -15.5055570631
 O       -19.0699683934        6.8413533963      -16.0532623232
 C       -17.7383933584        7.0245010512      -14.0610663840
 C       -16.1740479117        9.2229100824      -15.6555681344
 C       -18.2006181661        8.8808752245      -17.2598541639
 C       -13.1908486101        4.2862843059      -17.7694197568
 C       -14.3089458045        2.0246211100      -17.9310389618
 C        -9.9286554352        6.2211561874      -13.3254693883
 C        -9.4311290903        3.6315442251      -13.0958553287
 C       -16.3045062415        4.1734859340       -9.6320893447
 C       -14.6000948325        4.1872943146       -7.6990739011
 C       -15.1277911883       -0.9041926852      -13.4603677715
 C       -15.0139365862       -2.6054972151      -11.5049536231
 C        -8.1259013111       -1.7319390802      -12.7344208224
 C        -8.5190877628       -4.2664659956      -12.1526894095
 C        -3.3781033731       -1.0789847571       -8.1186069899
 C        -2.3615063576        0.0821384871      -10.2573042080
 C         2.4229847536       -5.5416751094      -10.5500601975
 C         1.2860347460       -4.9012976628       -8.3039683071
 C         5.3633684567       -5.3317091206       -4.6748056425
 C         7.1285719097       -3.4320280812       -4.5235284954
 C        10.0043698366       -8.2893072299       -9.9522497862
 C         9.2299751604      -10.3465815994       -9.0416274390
 C        11.7229094282      -10.2448259206       -2.3964598629
 C        11.0010552173       -7.8941624734       -1.6000153067
 C        14.9188683647       -6.4890175249       -6.4178030048
 C        15.8985145781       -4.6645903438       -5.1691916674
 H        15.3057351230       -2.8230376467       -6.5376205205
 H        13.5077407145       -2.4506730321       -6.9208959348
 H        14.3758142952       -3.3749006187       -7.9877807137
 H        15.1926626940       -5.4005041542       -2.7480359416
 H        15.5332949496       -7.0308868482       -3.5465968469
 H        13.3453434518       -6.6590934311       -1.5568584519
 H        14.5451149990       -7.8155833195       -1.4257644298
 H        11.8214702551      -10.3182233464       -4.8928276664
 H        12.2174839499       -8.9515887626       -5.7280931417
 H         9.4006722489      -10.1541954198       -6.1796024656
 H        10.9490445301      -10.5002174566       -6.9947939210
 H         8.0551216961       -6.3196448209       -9.3471484296
 H         9.1466626154       -6.1452382316       -8.0060538526
 H         6.2498601840       -6.7105333893       -7.2741895609
 H         6.5722968623       -5.1085205103       -8.0179342241
 H         3.9501067654       -2.2450932282       -5.9489608355
 H         3.7925793530       -4.0242207316       -6.1719825953
 H         4.1313522643       -1.9978233972       -8.5408291224
 H         2.5076474070       -2.3976354432       -8.0098069777
 H        -0.1888536262       -4.6926573927      -10.6567200269
 H         0.4322725158       -3.8377512981      -12.0470847498
 H        -1.9386488980       -2.7218301688      -11.7355282972
 H        -0.6668363127       -1.6728056086      -11.4356701024
 H        -4.9037355821       -3.2514919920       -9.1003862148
 H        -3.9453394391       -3.9526376257      -10.3656543920
 H        -6.2262232094       -4.5328501313      -10.8098015220
 H        -5.7561907839       -3.4719478209      -12.0514642009
 H       -10.3363753327       -0.8343573134      -12.0461925415
 H       -10.8657413276       -0.5994968580      -10.3478057415
 H       -12.1912501330       -2.6367922983      -10.7671789202
 H       -11.8104376671       -2.6969016297      -12.4203231306
 H       -14.6890018403       -0.6823799124       -9.1796771962
 H       -16.3178598581       -1.1371115211       -9.6659924920
 H       -16.7851080017        0.8650230937       -8.1855317267
 H       -16.7805740455        1.4789576099       -9.9763485826
 H       -12.2241185210        2.9120252562       -8.8252920703
 H       -12.0894079711        4.5476305106       -8.8855694407
 H       -11.8024145775        2.7609996336      -11.4976913955
 H       -10.5044716911        3.1388205910      -10.3389458700
 H       -11.9604657114        5.5698104094      -15.6692933228
 H       -12.6510167826        6.3415992899      -14.3325401773
 H       -14.6594782474        5.2994383416      -15.2375086206
 H       -14.1225721881        4.3719831518      -13.8197754196
 H       -16.2151159990        4.4948413145      -19.4565556265
 H       -14.9999442262        5.5554004828      -18.9737216939
 H       -17.8462094817        5.5449096438      -17.7372053290
 H       -17.4284991582        6.8357518062      -18.8484314256
 H       -17.8116878581        5.9312540260      -13.7941256891
 H       -18.4445409671        7.7315711611      -13.5426554499
 H       -16.7969613258        7.4070664583      -13.6887288939
 H       -15.2423902224        8.6828441595      -15.4939157944
 H       -16.5736833217        9.4775711195      -14.6937475681
 H       -16.0581010648       10.1669333999      -16.1594866121
 H       -18.7120131521        8.2053205503      -17.9626243079
 H       -17.6427674245        9.4706388438      -17.9994117280
 H       -18.9082077998        9.4754395569      -16.8122930470
 H       -13.3173193635        4.5367369937      -18.7909803245
 H       -12.2115524020        3.8304803632      -17.6317489966
 H       -13.0867336612        5.2678810087      -17.3716858541
 H       -15.3039949664        1.9909252624      -18.4910810773
 H       -14.3326011304        1.2598931453      -17.1527879965
 H       -13.4487658247        1.9776269596      -18.6028650615
 H        -8.8544937297        6.2720833922      -12.9604025876
 H       -10.5530394220        7.0460898626      -13.0060427881
 H        -9.8631212068        6.4344290795      -14.3788887063
 H        -9.6962170357        2.6828874179      -12.5850651618
 H        -8.4488768183        3.9437886293      -12.7500424281
 H        -9.3751867135        3.4521832687      -14.1316776849
 H       -16.9303963591        4.8412139901       -8.9416162404
 H       -16.9127140785        3.3485683955       -9.8818850389
 H       -16.0331828790        4.6722025660      -10.4611544936
 H       -15.1795870534        3.8308852317       -6.8532027418
 H       -14.7358990866        5.2290522468       -7.6976519418
 H       -13.5758028630        3.8225926715       -7.4120066239
 H       -14.9100080119        0.1336119652      -13.8074807936
 H       -16.1866817216       -0.8938388376      -13.5499798021
 H       -14.6741918744       -1.5467823116      -14.2647743330
 H       -14.4493387282       -3.3473933553      -11.9986980260
 H       -16.1115197534       -2.7334556089      -11.6790168459
 H       -14.6857558936       -2.7733070722      -10.4810061946
 H        -8.8132603498       -1.7364845665      -13.6223036959
 H        -7.0704991062       -1.7204626982      -13.0439544157
 H        -8.1612831389       -0.7729556971      -12.2718737584
 H        -9.4632992474       -4.2330901232      -12.5383126814
 H        -8.3640166106       -4.9792325729      -11.3936160788
 H        -7.8083155009       -4.3882867807      -12.9384601902
 H        -3.4555787302       -1.9571216225       -7.5681676946
 H        -4.3872972069       -0.7576836426       -8.2226927856
 H        -2.8062050194       -0.3072552446       -7.5642941294
 H        -1.6999824082        0.6959525301       -9.4741663112
 H        -3.1885590534        0.6019665413      -10.5650194181
 H        -1.7106411744       -0.1509324674      -11.1284661664
 H         1.5326323895       -5.9281646519      -11.0747115849
 H         2.7017103550       -6.3313631697       -9.9001277097
 H         3.1742947094       -5.4894321621      -11.2744316666
 H         1.9791786666       -4.8502883232       -7.5135597662
 H         0.9588055850       -5.9255294284       -8.4515045493
 H         0.3960784417       -4.2642296789       -8.0318723745
 H         5.2492662055       -6.2950896404       -5.1921268330
 H         4.4207395516       -4.7406987792       -4.5284013793
 H         5.6947155093       -5.5272084444       -3.6694089277
 H         7.4112556774       -2.5012995887       -4.9215188743
 H         7.9402775800       -3.8475283851       -3.9033963708
 H         6.4583647510       -3.1570310509       -3.7029665169
 H         9.2308853285       -8.1060458404      -10.6663371042
 H        10.8615111219       -8.8089984908      -10.4532052547
 H        10.2641577209       -7.2471674470       -9.7801599688
 H         8.7865732380      -10.9353913723       -8.2464152079
 H        10.1939994210      -10.8002144615       -9.1784765219
 H         8.6505712062      -10.4806248151       -9.9454186125
 H        11.8879924402      -10.4568160091       -1.3546178447
 H        12.5493512626      -10.7323221242       -2.8718277253
 H        10.7790782948      -10.7988043821       -2.6135087757
 H         9.9873073607       -8.2402955776       -1.5542906417
 H        11.0667756172       -6.8099955141       -1.7986885631
 H        11.5305866039       -8.0201279008       -0.6953812356
 H        15.8003065928       -6.2876004911       -7.0230219271
 H        14.1578338389       -6.6781923707       -7.1259943226
 H        15.1318303724       -7.3796919774       -5.7826386002
 H        16.4480041359       -5.4103896501       -4.6269446007
 H        15.8316656389       -3.7801035656       -4.5363303931
 H        16.5437133214       -4.3957146201       -6.0508927512
 Na       10.7926555382       -6.1917256007       -5.7192666777
 Na      -13.8770017819        2.1122174553      -12.9805664862
