232

 C        14.1681339255       -2.8321692206       -6.6336324093
 C        13.7786933416       -4.2829777657       -6.3923135613
 O        12.7418354274       -4.6461787275       -6.9472835127
 C        14.6605754022       -5.0266151291       -5.4386228075
 C        13.7274300905       -5.7627320868       -4.3273589216
 O        12.5119727301       -5.8615698633       -4.4627116760
 C        14.4152675445       -6.4072004276       -3.2193003155
 C        13.4348473801       -7.2203573102       -2.3134410080
 C        12.9705435525       -8.5339673565       -2.9581516011
 O        13.6517141851       -9.3581227200       -3.4803373364
 C        11.3499630956       -8.8661606608       -2.8827834176
 C        10.8080412245       -8.8103846990       -4.2639230549
 O        10.0943544173       -7.8755178326       -4.6132008704
 C        11.1595251450       -9.9301053782       -5.1935840982
 C        10.3963104944       -9.8634564432       -6.6143398550
 C        10.4812467351       -8.7005232657       -7.5150834060
 O        11.3624260229       -7.8950609389       -7.4416123424
 C         9.5409631984       -8.5222673214       -8.8312541245
 C         8.1189193233       -7.9075365931       -8.2338263856
 O         7.2880637192       -8.5932198624       -7.6598472967
 C         7.9225828106       -6.4380830224       -8.2998535633
 C         6.8793789168       -6.0562935897       -7.2668304981
 C         7.4606808237       -5.1170349932       -6.1562172747
 O         8.6264294819       -4.9821413634       -5.8354391759
 C         6.3819923590       -4.3377047339       -5.3855140104
 C         5.5976401164       -3.3665390056       -6.5403440246
 O         6.3632070253       -2.7304518636       -7.2236996653
 C         4.1209944321       -3.0110729179       -6.4926634925
 C         3.5535349657       -2.7500151346       -7.9189614140
 C         3.5197354365       -4.0011802140       -8.8092233890
 O         4.5148454875       -4.7049093675       -8.8359376383
 C         2.1679722182       -4.4608308508       -9.4425497540
 C         1.2998740717       -3.3008966045      -10.2789355302
 O         1.7281677061       -2.2161198461      -10.3238193109
 C        -0.0042931085       -3.7704241197      -11.0591965092
 C        -0.9231274811       -2.5624332491      -11.3460795903
 C        -1.7011895565       -2.0856233176      -10.0262941934
 O        -1.1809135719       -2.4029819235       -8.9547831498
 C        -2.9569925966       -1.1631304425      -10.0347429693
 C        -4.0992658925       -1.7548012770      -10.9125178692
 O        -4.4949377053       -1.1951834290      -11.9237116598
 C        -4.5357692521       -3.2082589731      -10.5537267312
 C        -5.7858191710       -3.6953693386      -11.2464567722
 C        -7.0844136878       -2.9640150031      -10.7398879266
 O        -7.1164929465       -2.2023352455       -9.8059521697
 C        -8.3651823934       -3.0648600297      -11.6556965690
 C        -9.6505718467       -2.6388329181      -10.8223354202
 O       -10.0582367692       -3.3579540746       -9.8887639807
 C       -10.4932652715       -1.4260888262      -11.1838211572
 C       -12.0394066787       -1.5971322368      -10.9666355490
 C       -12.8889430069       -0.6054188214      -11.7525294636
 O       -12.4630808917        0.3086248510      -12.3583152692
 C       -14.5349959395       -0.9064409002      -11.7882127736
 C       -15.1618016802        0.2873610182      -11.0089761571
 O       -15.1697888735        1.4582533758      -11.4806328552
 C       -15.9857741245        0.0993902025       -9.7738837702
 C       -16.2824364902        1.4260675477       -9.0904029034
 C       -14.9931580572        2.2098464283       -8.6747576838
 O       -14.1451420901        1.6008446274       -8.0818677929
 C       -14.6860484994        3.6908772163       -9.1234497039
 C       -13.5672189653        3.6062805086      -10.1180264482
 O       -13.7681903308        3.9433018635      -11.2724787580
 C       -12.1736769931        3.1878495526       -9.6707811326
 C       -11.1459904530        3.1909910377      -10.8043328192
 C       -10.8893845578        4.7387801199      -11.3657444695
 O       -11.0994326515        5.7144745207      -10.6629632676
 C       -10.4136526156        4.8720336687      -12.8617706796
 C       -11.5532966011        4.0725247895      -13.6836069346
 O       -11.6075060783        2.8558355604      -13.7473580361
 C       -12.6150232943        4.9927721103      -14.3923288347
 C       -13.9477169270        4.4381518719      -14.9216771397
 C       -14.1185218479        3.1461649290      -15.6830058135
 O       -14.2225843635        2.0381144327      -15.1177607698
 C       -14.4100998835        3.2032806280      -17.2938465391
 C       -15.9273842969        3.9978775484      -17.3471097112
 O       -16.8257157560        3.6967094836      -16.6435634503
 C       -16.1897458273        4.9910466748      -18.5997892697
 C       -16.8945781527        6.2793568323      -17.9904564025
 C       -16.1780624380        7.0329787608      -16.7900037046
 O       -14.9780489130        6.8471133082      -16.5404028687
 C       -17.2184950014        8.0438142664      -16.0632534868
 C       -17.9640045511        7.0003596803      -15.1022353426
 O       -18.9520903012        6.4834562042      -15.5223138034
 C       -17.5102416814        6.6689434692      -13.5976595549
 C       -16.3176367733        8.9378201608      -15.1965167012
 C       -18.2499005290        8.7374034417      -16.9755947501
 C       -13.3433493558        4.1179637902      -17.9792010177
 C       -14.5851502920        1.7956777079      -17.8799724443
 C       -10.3605867017        6.3679105485      -13.3143354296
 C        -9.0657570364        4.0839388416      -12.9368191407
 C       -16.0227495002        4.2044709040       -9.7339144179
 C       -14.1927408349        4.4870607235       -7.8630214998
 C       -15.0212629348       -0.7459414564      -13.2733216383
 C       -15.0760095311       -2.2252789871      -11.2049560922
 C        -8.0761064442       -2.1784557141      -12.9222960921
 C        -8.6659235367       -4.5432739857      -11.9939215392
 C        -3.3535925580       -0.9618278810       -8.5235995670
 C        -2.6838438941        0.2705715554      -10.6576740240
 C         2.4873116191       -5.5202026647      -10.4496228172
 C         1.5006228130       -5.0348930261       -8.1821802837
 C         5.3040694097       -5.2350794938       -4.6111283572
 C         7.0041743197       -3.3928636820       -4.3721396493
 C        10.1909878395       -7.5600229468       -9.9536746024
 C         9.2296467576       -9.9451650527       -9.4063211074
 C        11.3112516751      -10.2365650324       -2.1381373068
 C        10.5796723554       -7.8470530558       -2.0377036210
 C        15.1529017993       -6.1871467950       -6.3583465217
 C        15.8759048140       -4.2885010719       -4.9089717638
 H        14.0824844696       -2.2937471855       -5.6466537936
 H        13.4869647867       -2.4458086457       -7.4104321471
 H        15.2691757174       -2.8107907219       -6.9739699382
 H        15.0583268853       -5.7292374466       -2.5953381004
 H        15.1896632722       -7.0118314221       -3.6648369406
 H        12.6226398884       -6.5832407828       -2.0219224292
 H        14.0331391444       -7.3083681856       -1.3668987713
 H        11.0978808868      -10.9376955090       -4.8125385590
 H        12.2734061686       -9.8693001823       -5.2483952598
 H         9.3479424036       -9.9482260539       -6.2326826081
 H        10.5133970550      -10.7667665828       -7.1537357342
 H         7.8243423570       -5.9997860325       -9.3382861080
 H         8.9038107441       -6.0677982385       -7.9933282615
 H         6.5863374603       -6.8688447409       -6.6435909564
 H         5.8459119116       -5.7182512105       -7.6486158953
 H         4.1868370399       -2.0314680292       -6.0705420100
 H         3.5920712710       -3.6734526529       -5.8469127222
 H         4.2782114244       -2.0672946004       -8.4876475167
 H         2.6589716127       -2.1834751232       -7.9064098457
 H        -0.5253885439       -4.4998189956      -10.4279505181
 H         0.2435289336       -4.3551102406      -12.0359880567
 H        -1.7313905685       -2.7514408378      -12.0474018196
 H        -0.5027914679       -1.7033180747      -11.7646085934
 H        -4.6467751145       -3.4275031160       -9.5303086688
 H        -3.6887687869       -3.8069970549      -10.8523266584
 H        -5.9126066256       -4.7562629297      -11.1773590015
 H        -5.7036918048       -3.4255430161      -12.2094849257
 H       -10.5102187674       -1.0583380756      -12.1515319240
 H       -10.0408448479       -0.6494434246      -10.6102917120
 H       -12.1173957019       -1.5790893654       -9.9003292551
 H       -12.3920551331       -2.6228589855      -11.2319194588
 H       -15.5409343510       -0.6325608653       -9.0961019843
 H       -16.8866538926       -0.4551513795      -10.1601153187
 H       -16.9420723027        1.2281098443       -8.1415157901
 H       -16.8523253750        2.0034636914       -9.8021305726
 H       -12.2468247882        2.3174913541       -9.1309314409
 H       -11.9135663329        3.9298731971       -8.9077185740
 H       -11.2712270835        2.4800145056      -11.6221997049
 H       -10.2741091333        2.9980447109      -10.3360571204
 H       -12.1318138483        5.2704169578      -15.3448440714
 H       -12.7061228501        5.9450300387      -13.8376099301
 H       -14.4877856647        5.1107718851      -15.5758717624
 H       -14.5808525971        4.3164147814      -14.0331796603
 H       -16.9370848917        4.5571873505      -19.2646326591
 H       -15.3266066754        5.3189185257      -19.1842273936
 H       -17.8830160050        6.1649948620      -17.5413643807
 H       -16.9256518481        6.8902289913      -18.8562309235
 H       -16.5225071250        6.1772961936      -13.5425816664
 H       -18.2572536994        5.9446063118      -13.1732391462
 H       -17.5301112231        7.6283725696      -13.0937021322
 H       -15.9631974844        8.3969098703      -14.3404104763
 H       -17.0269299668        9.6769557792      -14.7424310086
 H       -15.4989885999        9.4270696364      -15.6998653619
 H       -19.0648384087        8.0890139252      -17.3578987596
 H       -17.7493398234        8.8945345292      -17.9472604470
 H       -18.5703214697        9.6838408274      -16.6408932857
 H       -13.2896776996        4.1518047913      -19.0697963811
 H       -12.3186581149        3.7343673094      -17.6356949896
 H       -13.2442573967        5.0987645224      -17.5067272763
 H       -14.1039701320        1.6659285563      -18.8575366032
 H       -15.6510613884        1.6597219690      -18.0118373388
 H       -14.1651989869        1.2369656398      -17.1096646584
 H        -9.3239000481        6.7362151195      -13.2606810269
 H       -10.9058222061        7.0405988887      -12.6276934495
 H       -10.6597365709        6.5045178845      -14.3436252065
 H        -9.0865275111        3.0384674784      -13.2772026245
 H        -8.4612385740        4.2926091286      -12.0315245058
 H        -8.4581044624        4.5934067511      -13.6740045570
 H       -16.8033008122        3.6566889482       -9.3709371169
 H       -16.1368668670        4.1077509302      -10.7909477448
 H       -16.1182927698        5.2992722621       -9.5846725116
 H       -14.9467410908        4.9462123889       -7.2652483559
 H       -13.5660136624        5.2091395448       -8.2522483952
 H       -13.5943024765        3.8567452811       -7.1637110317
 H       -14.9858983111        0.2159194714      -13.6298021207
 H       -16.1055859260       -0.7491967417      -13.3133228613
 H       -14.4724425378       -1.4091865788      -13.9983895885
 H       -14.7522965485       -3.0959740386      -11.7803959013
 H       -16.1749851630       -2.2222560281      -11.3630781416
 H       -14.9000079846       -2.4103483818      -10.1370757722
 H        -8.8149539710       -2.3588915576      -13.6849046588
 H        -7.1620211421       -2.4084714181      -13.4678655075
 H        -8.0712696659       -1.1699331103      -12.6980185887
 H        -9.2275578064       -4.5595579926      -12.9121241254
 H        -9.1758718209       -4.9073539598      -11.1522846947
 H        -7.7505716272       -5.0213631482      -12.2482250705
 H        -3.5311513428       -1.8825853874       -7.8831673338
 H        -4.3581780744       -0.4379953353       -8.4844484666
 H        -2.6460770373       -0.2301977199       -8.0597621326
 H        -1.6672851879        0.5891699334      -10.4719978966
 H        -3.4785024801        0.8918247243      -10.3200804281
 H        -2.6170687738        0.1507986246      -11.7252138798
 H         1.6977904374       -6.2456783729      -10.7758516020
 H         3.3424375625       -6.1438567575      -10.2279241575
 H         2.6481844127       -5.0232253785      -11.3802868977
 H         1.4696245245       -6.0876738994       -8.0548873816
 H         0.4344534171       -4.7199219051       -8.1226146374
 H         1.9220429205       -4.4321673178       -7.3164058213
 H         5.0439558957       -4.7135515883       -3.6841588589
 H         5.7115759706       -6.2002387226       -4.5233099959
 H         4.3973788893       -5.3883075927       -5.1394889393
 H         7.9326171866       -2.9864146188       -4.6474896466
 H         7.1731685472       -3.8215597687       -3.4139717858
 H         6.3704664132       -2.5520206850       -4.0493745350
 H         9.4823508301       -7.2955485681      -10.7328600691
 H        11.0446036049       -8.0727354287      -10.5150761977
 H        10.4789927088       -6.5645859410       -9.6298393769
 H         8.8535571971      -10.7064464265       -8.7150193276
 H        10.1483936045      -10.3724594679       -9.7775826321
 H         8.5576601813       -9.8757660569      -10.2623169598
 H        11.9829213719      -10.3131428200       -1.3517644895
 H        11.4844563441      -10.9954493472       -2.8685814844
 H        10.3359144361      -10.5170443370       -1.7025796676
 H         9.5715785153       -8.2353047279       -1.8330261205
 H        10.4666799163       -6.9577464255       -2.6863022992
 H        11.0684794070       -7.5314891816       -1.1038365921
 H        14.9624833254       -5.9704449445       -7.4164997236
 H        14.5040099676       -7.0424200961       -6.2483536131
 H        16.2127305008       -6.4568288309       -6.0691540987
 H        16.6908441836       -4.9538580494       -4.6143859278
 H        15.6632814337       -3.6396938305       -4.0707659783
 H        16.3720116220       -3.6245826854       -5.6316078829
 Na       10.8127809226       -5.9901123353       -6.1517172199
 Na      -13.7714959122        2.1605410515      -12.9402133207
