232

 C        13.7115639844       -2.4702474027       -6.8086550905
 C        13.4008032678       -4.0302314070       -6.5216738177
 O        12.5289711081       -4.5732583915       -7.2102240258
 C        14.2813517731       -4.8573683220       -5.5978776776
 C        13.3211544102       -5.5993862267       -4.4908265404
 O        12.0992747107       -5.4272024406       -4.4424224450
 C        13.9081824208       -6.5640801037       -3.4066333325
 C        12.7733096899       -7.0884145080       -2.5175806848
 C        12.2984498829       -8.5436494023       -2.8815455794
 O        13.1003607559       -9.3247874687       -3.2865892545
 C        10.6885326517       -8.9281616440       -3.0714402159
 C        10.6024273684       -8.8288113292       -4.6160524324
 O        10.2163407351       -7.8430997790       -5.1613314208
 C        11.1556380907       -9.9341923273       -5.5570433783
 C        10.3497724742       -9.9371885316       -6.9043270842
 C        10.7748632924       -8.7613362402       -7.7325698959
 O        11.8605098254       -8.2292829463       -7.4697814690
 C         9.8389626500       -8.2678507250       -8.8702419975
 C         8.5270041567       -7.7403132529       -8.2491652946
 O         7.8353353158       -8.5425235481       -7.7074090702
 C         8.1612291775       -6.2797283929       -8.2102124225
 C         7.1504542455       -5.8754244393       -7.1655309596
 C         7.6247240462       -4.8369980077       -6.1538903597
 O         8.7704392177       -4.6150185116       -5.8309476065
 C         6.4203444628       -4.1608374957       -5.4561825780
 C         5.5941305668       -3.2887490927       -6.6451295593
 O         6.0879512391       -2.7961150829       -7.5905329674
 C         4.0582441250       -3.1429332232       -6.3425215134
 C         3.2053225870       -2.8365868956       -7.5924836121
 C         3.3225751049       -4.0991062725       -8.5311011502
 O         4.2240847749       -4.9358955913       -8.3723374091
 C         2.0352211896       -4.5188200421       -9.3286453662
 C         1.4644072330       -3.1652751976      -10.0479138421
 O         1.9822421501       -2.1087174583      -10.0139296958
 C         0.2877957613       -3.4511363639      -11.0616418989
 C        -0.5634551375       -2.0877423418      -11.2452326823
 C        -1.7818995887       -2.0401921188      -10.3514559286
 O        -1.8608998559       -2.7285082604       -9.3261739726
 C        -3.0202319782       -1.0738039153      -10.6946949975
 C        -3.9697875542       -2.1035057090      -11.3043222627
 O        -3.9441955997       -2.2020111682      -12.5398554625
 C        -4.6582905162       -3.1000498339      -10.4961185551
 C        -5.8549358765       -3.7172477439      -11.3067001917
 C        -7.2212296624       -2.9888026578      -11.0135606650
 O        -7.3481007529       -2.2149453316      -10.1088760140
 C        -8.4957985303       -3.4680913708      -11.8289835254
 C        -9.7812717747       -3.0605855752      -11.0273723858
 O        -9.9781829955       -3.6146176746       -9.9311398061
 C       -10.8212013653       -2.0448413746      -11.5107585976
 C       -11.8790016241       -1.7338981643      -10.4278213615
 C       -12.9014645710       -0.7235745237      -10.9749511719
 O       -12.4689691943        0.3965924507      -11.2853425121
 C       -14.4322203353       -1.0534890328      -11.1613647230
 C       -15.1507002549        0.2370297050      -10.9566568108
 O       -14.9965388547        1.1780883277      -11.6594939451
 C       -16.0519715631        0.3653921585       -9.6259831451
 C       -16.1932683112        1.8502576273       -9.1722306283
 C       -14.7936878437        2.3277227157       -8.7490194550
 O       -14.0287420495        1.5706696900       -8.2156273059
 C       -14.2815485429        3.8340619960       -9.1051757971
 C       -13.1490017782        3.6039472563      -10.1649535787
 O       -13.5024863793        3.6864454344      -11.3473649205
 C       -11.7306257841        3.1761336476       -9.6923411660
 C       -10.7805103931        3.3615193219      -10.8026110307
 C       -10.7720894328        4.8479993597      -11.4236779583
 O       -11.2023365959        5.8140870088      -10.8209622801
 C       -10.3592443135        5.0192514071      -12.8663483151
 C       -11.4873676870        4.2586666439      -13.7392477981
 O       -11.3978340204        3.0567289190      -13.8069543085
 C       -12.4835323282        5.0936799114      -14.4938895290
 C       -13.8198707953        4.4288046587      -15.0417662916
 C       -13.9166017273        3.1407360570      -15.8493657250
 O       -13.8668053864        2.1020963295      -15.3015392158
 C       -14.4435133554        3.2287360034      -17.3506375875
 C       -15.8202287348        4.0690090691      -17.0415160689
 O       -16.2842000393        3.9601139966      -15.9395348633
 C       -16.3200281454        5.0080680795      -18.2142673187
 C       -17.1426040439        6.1700655779      -17.5816630437
 C       -16.3428416056        6.9229307286      -16.5287255964
 O       -15.1414262001        6.7128188681      -16.4306173981
 C       -17.1725496948        7.8901011882      -15.5344108936
 C       -17.9684461519        6.8019111619      -14.6375266643
 O       -18.9357795602        6.1729264684      -15.0434623884
 C       -17.3426818284        6.2483274782      -13.2418137438
 C       -16.2512506710        8.8801522235      -14.8080329931
 C       -18.3546904203        8.5863870051      -16.2155274337
 C       -13.4651634951        3.9476200944      -18.2856651337
 C       -14.7134509525        1.7465171405      -17.9786552328
 C       -10.3639889770        6.5179198859      -13.2278240182
 C        -8.9763626754        4.4350975217      -13.0912097165
 C       -15.3609938979        4.7610507533       -9.7947039750
 C       -13.5815450377        4.5132370938       -7.8662309662
 C       -14.5767486629       -1.5348344463      -12.6093187615
 C       -14.8650546737       -2.1831082502      -10.2074512305
 C        -8.3180238929       -2.6358392171      -13.1719688330
 C        -8.4973515450       -4.9445524209      -12.2602808104
 C        -3.4926056379       -0.6220705660       -9.2222228407
 C        -2.7341632907        0.1242465988      -11.5742183200
 C         2.2213318329       -5.7844614791      -10.2346413482
 C         0.9721162688       -4.8186784014       -8.2708685894
 C         5.4849541099       -5.1276431024       -4.6711862572
 C         6.9519957723       -3.1000027419       -4.5501331594
 C        10.6463628071       -7.2263388701       -9.7413284202
 C         9.5254488472       -9.5427359373       -9.7632429076
 C        10.5669369318      -10.3813678951       -2.4820735351
 C         9.8385894277       -7.9193648494       -2.3034033613
 C        15.1080156203       -6.0534272444       -6.3752297900
 C        15.2945533977       -4.1852253491       -4.6499817854
 H        14.0959644252       -1.9859642479       -5.9380192401
 H        12.7152345307       -2.0098051578       -7.0184322314
 H        14.4090722826       -2.4048213768       -7.6955809247
 H        14.6602974755       -6.0414827378       -2.8215283328
 H        14.6840069838       -7.3068951762       -3.8758857200
 H        12.0310483677       -6.2812300024       -2.6149719139
 H        13.2026895330       -7.1017442764       -1.5289495293
 H        11.0160994708      -10.9380310975       -5.1049759848
 H        12.2042669161       -9.8173093689       -5.8129175229
 H         9.2855758074      -10.1096201791       -6.7686120706
 H        10.6387385673      -10.8355476258       -7.5405964720
 H         7.8392706310       -5.8923166266       -9.2034559460
 H         9.1889242826       -5.7956096610       -7.9307335570
 H         6.6789861037       -6.6828321894       -6.5510475051
 H         6.2749125957       -5.5131421419       -7.5890190772
 H         3.8910349682       -2.5331636592       -5.4356073942
 H         3.6728547674       -4.1357939096       -6.0044028643
 H         3.4248073906       -1.9967757242       -8.2058302211
 H         2.1293195603       -2.5868586920       -7.2687309951
 H        -0.4363489817       -4.2527088631      -10.7425019923
 H         0.7093126802       -3.8212057492      -11.9515840175
 H        -0.9136972933       -1.8752502568      -12.2557658818
 H        -0.1017232596       -1.1561384307      -10.7879444251
 H        -4.9252492976       -2.6607872020       -9.5062429934
 H        -4.0220045423       -3.9580642482      -10.2791596213
 H        -5.9460075802       -4.7717929837      -11.0488586715
 H        -5.5156561003       -3.7070391469      -12.3708247324
 H       -11.2320650545       -2.3675195841      -12.5420620339
 H       -10.4705980300       -0.9878931772      -11.7947959300
 H       -11.5028936862       -1.2961909863       -9.4782031268
 H       -12.3174936330       -2.6675775968      -10.1930623965
 H       -15.7295684873       -0.3178702638       -8.7943375585
 H       -16.9740213044       -0.0708607152      -10.0152511360
 H       -17.0223406047        2.1066124655       -8.5321413771
 H       -16.3523894090        2.4558508108      -10.0871296026
 H       -11.8158846242        2.0414231007       -9.5553343231
 H       -11.5056130368        3.7506759559       -8.8411699918
 H       -11.0768723015        2.7375985335      -11.7086105855
 H        -9.7272667969        3.0138139722      -10.4973870077
 H       -11.8471421146        5.4912520561      -15.3194707203
 H       -12.8799663603        5.9388335228      -13.9294797499
 H       -14.1845751390        5.2872314126      -15.5868911753
 H       -14.4637427647        4.2460143599      -14.2182139980
 H       -17.0281187429        4.3651805697      -18.7154476862
 H       -15.5467030987        5.3898393151      -18.8783228014
 H       -17.9554313671        5.7342757504      -17.0231080662
 H       -17.4337996544        6.9800887907      -18.2995348726
 H       -18.0349342841        6.3252386882      -12.3737531400
 H       -16.4261453087        6.8167206126      -13.0078887290
 H       -17.2624310763        5.1703124800      -13.2676900519
 H       -15.4263566865        8.2956004998      -14.3588008365
 H       -16.7917398649        9.4099097808      -14.1101864494
 H       -15.7599870912        9.5890064986      -15.4802623400
 H       -19.1918783696        7.9185238788      -16.2978780061
 H       -18.2023024719        9.3107765298      -17.0125264412
 H       -18.8105897236        9.1766451847      -15.4630018257
 H       -13.9525646619        4.3047215239      -19.2425856363
 H       -12.7048968774        3.2366287311      -18.6116069367
 H       -12.9983149373        4.8436763835      -17.8355713763
 H       -14.5518774834        1.1103443121      -17.0964815571
 H       -14.0838821691        1.5839323009      -18.8178008387
 H       -15.7772259712        1.7355373383      -18.3165731437
 H        -9.3390781301        6.9822658576      -12.9630419072
 H       -11.0650190034        7.0801774079      -12.6462685967
 H       -10.5179937598        6.5507107294      -14.2953618577
 H        -9.0990790004        3.3219241332      -13.0013000030
 H        -8.2585252017        4.7069217112      -12.3261308592
 H        -8.5637629059        4.6169349600      -14.0978111527
 H       -15.4978817289        5.6714150059       -9.2094627669
 H       -16.2707410997        4.2973291757      -10.1905466529
 H       -15.0041410302        5.2422188314      -10.6681164153
 H       -14.2951198448        4.9805866299       -7.2343280001
 H       -12.9122885058        5.3006087109       -8.1587973600
 H       -12.9165491280        3.8129069088       -7.3671453121
 H       -14.5761984890       -0.6722419337      -13.3319946071
 H       -15.5317107752       -2.1086376366      -12.6826065747
 H       -13.8781550719       -2.2946043908      -13.0182164665
 H       -14.4593863569       -3.1431293191      -10.3990286971
 H       -15.9533112692       -2.3387937589      -10.2870623504
 H       -14.7198857300       -1.9370511292       -9.1435824676
 H        -9.0233853648       -2.7057114936      -13.9902689307
 H        -7.3439670135       -2.7678807069      -13.5306395676
 H        -8.3430928631       -1.5748278984      -12.9619519070
 H        -9.1694903792       -4.8895866554      -13.0038894578
 H        -8.8691418735       -5.6335323526      -11.5496987563
 H        -7.5330035687       -5.1973144646      -12.6322716975
 H        -3.5623845389       -1.2580183667       -8.3865571855
 H        -4.4236577417       -0.0828831184       -9.3710918399
 H        -2.7835939585        0.1389866604       -8.7789539064
 H        -1.6742282784        0.6073575646      -11.3022347581
 H        -3.4501463585        0.9019534272      -11.4204097779
 H        -2.8810634750       -0.1737176755      -12.6296088820
 H         1.3127299891       -6.0878228110      -10.6769443880
 H         2.5694618412       -6.6840257127       -9.7709749015
 H         2.9347627101       -5.6542815621      -11.0240274975
 H         1.0653873741       -4.3656868759       -7.2918919570
 H         0.8230084833       -5.8794151518       -8.1115621639
 H        -0.0082049883       -4.4214624588       -8.5873392489
 H         5.3368331576       -6.0599110098       -5.0913278944
 H         4.5418437583       -4.5882640075       -4.4916641928
 H         6.0453833751       -5.3444993744       -3.7728236878
 H         7.8450573207       -2.6000004709       -4.7672171547
 H         7.2510408572       -3.5809300533       -3.5834360041
 H         6.3327103761       -2.3110640565       -4.3082348970
 H        10.0447058488       -6.8147217365      -10.5843953055
 H        11.4838304956       -7.7389797589      -10.2262427410
 H        11.2355550682       -6.4627434761       -9.1675397656
 H         8.9113555517      -10.1976801083       -9.1850432899
 H        10.4643644171      -10.0042167891      -10.0799300875
 H         9.0527910710       -9.3475672823      -10.7111460621
 H        11.0388301266      -10.3704755444       -1.4833006801
 H        11.1088925035      -11.1094724915       -3.0199280605
 H         9.5448215791      -10.6774751113       -2.4436010390
 H         8.8033428836       -8.2912708762       -2.3169500797
 H         9.7693810937       -6.9443237090       -2.8470668646
 H        10.0426207103       -7.8725176690       -1.2621415617
 H        15.6978119733       -5.5670820209       -7.1690878928
 H        14.5257763639       -6.9530666011       -6.6269046014
 H        15.8746926466       -6.3771121106       -5.6760405447
 H        16.1424789738       -4.7492914752       -4.3699341402
 H        14.8762904955       -4.0455447616       -3.6472195472
 H        15.7495349773       -3.2023224038       -4.8639611844
 Na       10.7585234159       -5.7504551918       -6.2369965601
 Na      -13.4358766200        1.9538343141      -12.9239541926
