232

 C        13.6632862008       -2.5554149116       -7.0870754025
 C        13.2037305781       -3.9778433186       -6.5561680015
 O        12.2199335304       -4.5232431260       -7.0109152397
 C        13.9468995765       -4.8189781775       -5.4080069714
 C        12.9839983309       -5.5272175470       -4.3901343110
 O        11.7838111265       -5.2280685062       -4.3704683118
 C        13.5742347130       -6.5248919945       -3.3885915943
 C        12.5590193049       -7.0831854867       -2.4368763101
 C        12.1808991857       -8.5135887867       -3.0295135335
 O        12.9270444615       -9.3585856951       -3.4379401548
 C        10.6448542736       -8.8843761853       -3.1194117512
 C        10.2379871853       -8.8695261074       -4.7408927666
 O         9.6050880062       -7.9179424233       -5.1638941389
 C        11.0074174305       -9.9426901914       -5.5938791717
 C        10.7101368960       -9.8459769174       -7.1525368156
 C        10.9973655631       -8.5115020425       -7.8156224519
 O        11.9096796887       -7.7440869635       -7.4482671639
 C        10.1118394566       -8.1062473309       -8.9790687589
 C         8.7337968902       -7.6080877142       -8.2869569994
 O         8.0935845708       -8.4254204454       -7.7210428740
 C         8.4118791792       -6.0374804795       -8.3994274690
 C         7.2959464068       -5.6971308622       -7.3646592492
 C         7.7563266236       -4.7703238370       -6.1912674261
 O         8.9388903543       -4.5888166520       -5.9895724051
 C         6.5473410785       -4.0432236008       -5.3922913575
 C         5.6253114405       -3.3760221775       -6.4542788363
 O         6.0868010428       -2.9656294634       -7.4771088603
 C         4.1100239253       -2.9618880366       -6.0821533364
 C         3.2857755477       -2.9442699063       -7.5305819494
 C         3.1300082523       -4.1977951171       -8.2860615980
 O         3.8209863113       -5.2045365274       -8.1361643311
 C         1.7297163741       -4.3769792484       -9.1642033785
 C         1.4364649277       -3.1460046611      -10.0198182618
 O         2.0982150269       -2.1537524901       -9.9663635041
 C         0.4687957056       -3.2812084698      -11.2235639612
 C        -0.5103944227       -2.0253347283      -11.4143896119
 C        -1.8332875505       -2.1546987972      -10.6049060538
 O        -1.9496853196       -3.0584487778       -9.7884039783
 C        -2.9815314373       -1.2015858634      -10.8961823565
 C        -4.0180685019       -2.1272792031      -11.5168242054
 O        -3.8633476778       -2.4997035233      -12.6870367625
 C        -4.8627767762       -2.8440004142      -10.4777143193
 C        -5.9184516250       -3.7433450338      -11.0119784051
 C        -7.2995670835       -3.0476779655      -11.1243303184
 O        -7.4974886876       -2.0219385128      -10.5220352256
 C        -8.4454128796       -3.5905659137      -11.9645606400
 C        -9.7448856608       -3.4343157367      -11.0585161809
 O        -9.9243556270       -4.0015079542       -9.9792401648
 C       -10.8197581869       -2.3340186112      -11.4338748666
 C       -11.7669601878       -2.0146281709      -10.2478477638
 C       -12.7544847468       -0.9021020727      -10.6937753369
 O       -12.3331792562        0.1940958450      -11.1406829785
 C       -14.2756721254       -1.2484391798      -10.8746923593
 C       -15.1372076267        0.0220958793      -10.8880340551
 O       -15.2427095822        0.7305955285      -11.8581438220
 C       -15.9544146696        0.5323406328       -9.6156723821
 C       -16.0308643913        2.0777941993       -9.4340326787
 C       -14.7256449270        2.4425018380       -8.7492774036
 O       -14.1445134034        1.6592764524       -8.0125914899
 C       -14.0498212447        3.8610706058       -9.0615648739
 C       -12.9902679801        3.7434577866      -10.1960517146
 O       -13.3721698714        3.6862340360      -11.3376775014
 C       -11.6056209449        3.3238369260       -9.8750974505
 C       -10.5124436262        3.6514914821      -10.9093680010
 C       -10.6933666785        5.0527321285      -11.5833835040
 O       -11.2895512999        5.9796697051      -11.1223403250
 C       -10.1476115283        5.1425347578      -13.0291627896
 C       -11.3013980829        4.3743278149      -13.7905159287
 O       -11.3466124831        3.1781829526      -13.6379430856
 C       -12.2113620507        5.0706747219      -14.8890214153
 C       -13.6310879562        4.5021079563      -14.8359341684
 C       -13.8027626208        3.1753780111      -15.6423417676
 O       -13.4864359921        2.0595549998      -15.4295360122
 C       -14.4438480181        3.3847271965      -17.0658934553
 C       -15.8780069445        4.1152035595      -16.9892382542
 O       -16.4971380847        3.8633690690      -15.9819826363
 C       -16.3872551332        5.0136380853      -18.0974537230
 C       -17.3012675070        6.0358621780      -17.4010760843
 C       -16.4596797719        6.8883177399      -16.3724826784
 O       -15.2463413975        6.8875776617      -16.5527671076
 C       -17.2980427073        7.7436337956      -15.3877286075
 C       -18.0254587350        6.5742075657      -14.4252866399
 O       -19.1336368209        6.0707603165      -14.6249825736
 C       -17.0853646312        6.3398663299      -13.1614870473
 C       -16.3789649553        8.6806476621      -14.4045281678
 C       -18.3713612580        8.5575321502      -16.0372951588
 C       -13.4059463127        4.2295053167      -17.9836163757
 C       -14.8872503308        1.9666337914      -17.6380348384
 C       -10.0546254487        6.5712262118      -13.3891023584
 C        -8.8049049867        4.3476530211      -13.2128693738
 C       -15.0307967473        5.1016633112       -9.4850332546
 C       -13.4256441560        4.3544648885       -7.7009326669
 C       -14.4889695233       -1.8083444730      -12.2584982166
 C       -14.8095246056       -2.2724861368       -9.7766317674
 C        -8.5986302289       -2.7521547525      -13.2656269824
 C        -8.4898546290       -5.1150203299      -12.3112732780
 C        -3.5247842543       -0.5356585518       -9.5662689149
 C        -2.6232032916       -0.0563231826      -11.9500714914
 C         1.9990056485       -5.4727025997      -10.1800383801
 C         0.5757285804       -4.8423079179       -8.2805664543
 C         5.8457909626       -5.2080541571       -4.5224560169
 C         7.1802357736       -2.8626763030       -4.6568375000
 C        10.7855771464       -7.0727699196       -9.8978170099
 C         9.7033630937       -9.4250161613       -9.8713916691
 C        10.3897204343      -10.3465608190       -2.5777016705
 C         9.6974104609       -7.8564873792       -2.4455418154
 C        14.6391745339       -5.9148655944       -6.2731263078
 C        15.1083942775       -4.0756051311       -4.5929174939
 H        14.0953286496       -1.9182127161       -6.3407012852
 H        12.7048131791       -2.1172992580       -7.4553176059
 H        14.3526321192       -2.8006611449       -7.9080141904
 H        14.2983064032       -5.9791706483       -2.8122375703
 H        14.2534431733       -7.2474305335       -3.7908093957
 H        11.6888896987       -6.3750685017       -2.3536511580
 H        13.1697084606       -7.1814960670       -1.5694086240
 H        10.7038142866      -10.9881169838       -5.3533012952
 H        12.0693703778       -9.7993822589       -5.3424178934
 H         9.8274133093      -10.3227477107       -7.4055780189
 H        11.5329026953      -10.5028506078       -7.5727259484
 H         8.1778205780       -5.7977810662       -9.3957617345
 H         9.3505893360       -5.5848762001       -8.0854562754
 H         6.7897979089       -6.5973230386       -6.9826368296
 H         6.4631524110       -5.1638122995       -7.7790456355
 H         4.0629570663       -1.9381617104       -5.7244836589
 H         3.7713035181       -3.5333424649       -5.2552335290
 H         3.8798536690       -2.2819772910       -8.1453867777
 H         2.3322575788       -2.3636698921       -7.4022944241
 H        -0.1780915957       -4.1865938614      -11.0484896423
 H         1.0793746589       -3.3857845143      -12.1638960381
 H        -0.9216842273       -1.9728089043      -12.3950454356
 H         0.0462971943       -1.1701758933      -11.1200714923
 H        -5.4037578094       -2.2665666208       -9.7802313174
 H        -4.0559069858       -3.3089631377       -9.9317424959
 H        -6.0289461063       -4.5839087327      -10.4623066693
 H        -5.6420532824       -4.0519303660      -12.0141908281
 H       -11.2277315510       -2.7333853863      -12.2932615444
 H       -10.4464934646       -1.4073362660      -11.7372160002
 H       -11.1851026356       -1.5911677766       -9.4053786583
 H       -12.0963691057       -2.9806327387       -9.9428409628
 H       -15.5485098211        0.0027216930       -8.7451746539
 H       -16.9591020293        0.1723007109       -9.7941500427
 H       -16.9425447320        2.4538605348       -8.9639581110
 H       -16.0769385049        2.6599691435      -10.4372309641
 H       -11.6708863905        2.2458935657       -9.7775495474
 H       -11.4044263379        3.8800148532       -9.0487939220
 H       -10.4460220473        3.0099317205      -11.6971903232
 H        -9.5262769364        3.6710346531      -10.4562387316
 H       -11.7160378987        4.8808520563      -15.8593319933
 H       -12.2481734428        6.1401725138      -14.7576638998
 H       -14.3583834277        5.3140697394      -15.0123915912
 H       -13.7958849733        4.1567536575      -13.7691787942
 H       -17.0610954070        4.5187037881      -18.8250247959
 H       -15.5465880594        5.5056795557      -18.6128695457
 H       -18.0064674432        5.4890153768      -16.7890388771
 H       -17.8164415496        6.5081835617      -18.2460489388
 H       -17.3940368401        5.3636194184      -12.8166157650
 H       -17.2982507555        7.0482356238      -12.4106221144
 H       -16.0351569621        6.1686847183      -13.3951029088
 H       -15.5552284503        8.1274179829      -13.8804871722
 H       -17.0329308685        9.2396866020      -13.7881804780
 H       -15.8721176264        9.4897359148      -15.0039382150
 H       -19.1400342980        7.8592844888      -16.3976584551
 H       -17.8644137290        9.0014376073      -16.9068389762
 H       -18.9085693956        9.4001228909      -15.5366489660
 H       -13.5776377187        3.9423268122      -19.0257626135
 H       -12.4214996395        4.0958281812      -17.6249366461
 H       -13.6798806288        5.2882731400      -18.0613617619
 H       -15.9085967156        1.8703812366      -17.3863117370
 H       -14.2761227190        1.2665956550      -17.1305160380
 H       -14.6002865620        1.8892094549      -18.7009893300
 H        -9.3819025605        6.9710890260      -12.6143373995
 H       -11.0543422380        6.9609020271      -13.3663668507
 H        -9.5595420015        6.6734107120      -14.3478316540
 H        -8.8644620259        3.2896864629      -13.0702961955
 H        -8.1035761859        4.6090011598      -12.4632736520
 H        -8.4120747882        4.5907775425      -14.2125683707
 H       -15.8157226678        5.4051674705       -8.7021414461
 H       -15.3712955944        4.9660801845      -10.4947693050
 H       -14.5515618302        6.0045447051       -9.3982730220
 H       -14.0827989314        4.3821155378       -6.8221226013
 H       -13.0246481370        5.4112146118       -7.8419950409
 H       -12.5642839581        3.7581370352       -7.4401152146
 H       -14.1441670191       -1.0415157635      -12.9896957167
 H       -15.4471221977       -2.2294353801      -12.3088766194
 H       -13.9612978331       -2.6536333532      -12.5044336844
 H       -14.3687733285       -3.2791143112       -9.9265345210
 H       -15.8684026134       -2.3757459806       -9.7125989996
 H       -14.4372026778       -2.0214032759       -8.7766436206
 H        -9.5664638589       -2.8905882614      -13.7384779881
 H        -7.7967405450       -2.8726425275      -13.9663993364
 H        -8.4959222185       -1.6318234893      -13.1436672512
 H        -9.5185095273       -5.2246965415      -12.6940347357
 H        -8.3366763401       -5.8637380174      -11.4352331094
 H        -7.6799626765       -5.3303467095      -13.0874938813
 H        -3.5777564437       -1.2794590393       -8.7804953812
 H        -4.4829051910       -0.0047157182       -9.6728088787
 H        -2.8632860842        0.2516413571       -9.1211013040
 H        -1.9181569273        0.6184107886      -11.3147518100
 H        -3.3733527647        0.6172671867      -12.1217723538
 H        -2.3793311072       -0.3906978202      -12.8942673456
 H         1.1394024831       -5.9378658850      -10.6503086185
 H         2.5127457759       -6.3616161984       -9.7200544623
 H         2.7528947954       -5.2136647865      -10.9875687012
 H        -0.1678461536       -3.9991155488       -8.2806103451
 H         0.8586886310       -5.2242790292       -7.2855633636
 H         0.0209337082       -5.7010883140       -8.5919043375
 H         4.9184080543       -5.5943273048       -4.9053682399
 H         5.5636539858       -4.7456822532       -3.5481055363
 H         6.5967811002       -6.0212360899       -4.4882536639
 H         7.4038781396       -2.0728544389       -5.4002785393
 H         8.1828738531       -3.0341285093       -4.1871520976
 H         6.6920091977       -2.3082874649       -3.9298529080
 H        10.0360707652       -6.9382926561      -10.7009651137
 H        11.6165680253       -7.5019078804      -10.3873912397
 H        11.1257513771       -6.1516672496       -9.3921869360
 H         9.1796714836      -10.2031122498       -9.3222213813
 H        10.6473452131       -9.7490318333      -10.3822501022
 H         8.9675985823       -9.1846043448      -10.6548233587
 H        10.0188971475      -10.3526767425       -1.4973050231
 H        11.3836018424      -10.8249326124       -2.5104988204
 H         9.7071175221      -10.8860383479       -3.2125012209
 H         8.6417918207       -8.0847932438       -2.6009869710
 H         9.8245969480       -6.9047241401       -2.9523131509
 H         9.9171135995       -7.6788328095       -1.3832709116
 H        15.4631157929       -5.4454428535       -6.8161288379
 H        13.8476425839       -6.5176124121       -6.7558953906
 H        15.0688859208       -6.5926937699       -5.5782290477
 H        15.3210970677       -4.4156081101       -3.5947697213
 H        15.0239143097       -3.0043732923       -4.4010566070
 H        16.0454688268       -4.0786118267       -5.1140896586
 Na       10.6285093146       -6.1896397473       -6.4883330313
 Na      -13.1627196593        1.6841165399      -12.9422137271
