232

 C        13.7541581127       -2.7688184059       -7.3256662907
 C        12.8944716655       -3.8945052835       -6.5594909327
 O        11.6940384678       -4.0277134555       -6.7972238273
 C        13.6375843406       -4.8027084075       -5.4506094894
 C        12.7489725290       -5.4506053716       -4.3746112735
 O        11.5143557325       -5.3412568594       -4.3725221684
 C        13.3360388112       -6.2332568891       -3.1335488005
 C        12.2356564591       -7.0020622818       -2.3504230758
 C        11.9100225731       -8.3272845766       -3.1473927868
 O        12.8426315745       -8.9635929856       -3.5345903266
 C        10.3864686054       -8.8846489773       -3.3699590383
 C        10.2951006592       -8.8334971183       -4.8652508525
 O         9.6289621655       -7.9623148817       -5.3987348061
 C        11.0948565730       -9.8598512889       -5.7469097962
 C        10.5914134149       -9.7552356392       -7.2375139476
 C        10.9286015320       -8.3580073903       -7.8965667162
 O        11.8183448855       -7.6966613172       -7.3069827476
 C        10.2509938441       -7.8688222053       -9.1431166833
 C         8.8196918774       -7.4369387017       -8.5477539646
 O         8.1109606317       -8.3280846592       -8.1440605119
 C         8.3990818236       -5.9426342005       -8.6378725096
 C         7.2347569916       -5.6499546855       -7.6378604786
 C         7.7196080640       -4.8150555997       -6.4751731279
 O         8.8543101338       -4.8140115596       -6.0506153770
 C         6.6338997569       -4.0425603656       -5.7488154554
 C         5.5873499411       -3.2890329963       -6.6141725278
 O         5.8831610601       -2.8291261550       -7.6849317111
 C         4.0435217539       -3.2349989078       -5.9924208242
 C         3.2536028967       -3.0267890008       -7.2495436427
 C         2.9637303165       -4.2801874061       -7.9325704481
 O         3.5446606788       -5.3527824488       -7.6430357116
 C         1.7413052170       -4.4083903337       -9.0214064837
 C         1.5189864057       -3.0261629167       -9.8635254288
 O         1.9647841052       -1.9749360445       -9.5746774663
 C         0.8061029501       -3.2091098211      -11.2102511042
 C        -0.2076529089       -2.1161081318      -11.5525871327
 C        -1.5782622786       -2.2451658587      -10.8478638837
 O        -1.7190038547       -3.0458600848       -9.9212805981
 C        -2.8524186869       -1.3267236038      -11.3317945851
 C        -4.1357103698       -2.1778771518      -11.5744231681
 O        -4.5101358491       -2.3602792521      -12.7304508848
 C        -4.9575339456       -2.7905505401      -10.4249634020
 C        -6.1776273107       -3.6966381482      -10.9445664724
 C        -7.4275557842       -2.9243468872      -11.4273537303
 O        -7.6499581391       -1.7256974008      -11.2888956425
 C        -8.5589851628       -3.8527634770      -11.9822061226
 C        -9.8765369958       -3.7030143306      -11.1689609667
 O       -10.1698953485       -4.5654911887      -10.3202715373
 C       -10.6268837981       -2.3516611825      -11.2012274180
 C       -11.8086207078       -2.1839909841      -10.1857692262
 C       -12.6864262081       -1.0506360774      -10.7364026511
 O       -12.2175653414       -0.0537872954      -11.3287383173
 C       -14.2740374346       -1.3037899298      -10.6956850039
 C       -14.9528404631       -0.0042789165      -11.0125160376
 O       -14.7710318005        0.5518464184      -12.0591233703
 C       -15.8983889908        0.6288295580       -9.8933562824
 C       -15.6515991792        2.1733164912       -9.7988331080
 C       -14.5453094961        2.5827849631       -8.7191973198
 O       -14.1203752181        1.7784680875       -7.9510231727
 C       -13.8760930037        4.0443669948       -8.8179490025
 C       -12.7082190453        3.6915789607       -9.8752184245
 O       -13.0897905876        3.2025866167      -10.9144324020
 C       -11.2730154965        3.9886932722       -9.5514220098
 C       -10.3655616496        3.8226035961      -10.8041437110
 C       -10.5009787957        5.0565867946      -11.7867991108
 O       -11.1966387580        6.0055417616      -11.3569985091
 C        -9.9186309652        5.0530259050      -13.2562903633
 C       -10.9850834126        4.2240185782      -14.0072122502
 O       -11.0002189632        3.0126109673      -13.8379303950
 C       -12.0781345113        5.0946922678      -14.8137774706
 C       -13.4919444602        4.5637370502      -14.7030154897
 C       -13.8481496547        3.2544408665      -15.5083321721
 O       -13.9185416479        2.2124954538      -14.9735835432
 C       -14.3941419576        3.4365453566      -16.9537878820
 C       -15.8626823460        4.0125309388      -16.6225798528
 O       -16.4121515949        3.6383850553      -15.6251659421
 C       -16.5230572393        4.9430198366      -17.7567945760
 C       -17.3768642813        6.0669439729      -17.1339714475
 C       -16.6197537326        6.9038982747      -16.1621907198
 O       -15.4111971854        6.7915156340      -16.0576404729
 C       -17.4711765025        7.7177265727      -15.1854513419
 C       -18.0108487372        6.5390393269      -14.1665190450
 O       -19.1400632892        6.2160734397      -14.3006056977
 C       -16.9312104562        5.9928898895      -13.0933580452
 C       -16.5884221722        8.7806203735      -14.5326576938
 C       -18.7751308680        8.4503456482      -15.7011889538
 C       -13.5839117719        4.3359307980      -17.8724294475
 C       -14.6052386446        1.9792992454      -17.5120319883
 C        -9.8459936626        6.5828896169      -13.8221703994
 C        -8.5437799762        4.3327329150      -13.2083320194
 C       -14.8693339261        5.0001771674       -9.3663756393
 C       -13.2482447935        4.4441472482       -7.5016118279
 C       -14.4835989324       -2.3708886126      -11.8554140808
 C       -14.7337519351       -1.8785869359       -9.3500893543
 C        -9.0127789683       -3.3138160398      -13.4256373470
 C        -8.3045124230       -5.3348202941      -12.1989878428
 C        -3.0781096783       -0.4643848337      -10.0702847736
 C        -2.5857963395       -0.5678830797      -12.6245656887
 C         2.1166722179       -5.7245518520       -9.9492812052
 C         0.4136326884       -4.5981458958       -8.2237181996
 C         5.9754819481       -4.9821061032       -4.7174333751
 C         7.3236637435       -2.8693329234       -5.0077465251
 C        11.1785639752       -6.8419396417       -9.8596472565
 C         9.9338042848       -9.0541148101      -10.0532415802
 C        10.2190707592      -10.3620054263       -2.8114187351
 C         9.3895289009       -7.9173781316       -2.7897004165
 C        14.4183252147       -6.0282448771       -6.1288293846
 C        14.6683723234       -4.0676304880       -4.5364438328
 H        13.6954141965       -1.8560150807       -6.8799589701
 H        13.3562239095       -2.7315970013       -8.2988344262
 H        14.7471562588       -3.1776086136       -7.4005496357
 H        13.8836642292       -5.5555642392       -2.5457252606
 H        14.1122299152       -6.9193993084       -3.4585635185
 H        11.3311277809       -6.3859018448       -2.2014587840
 H        12.6689351945       -7.4576345520       -1.4884724189
 H        10.8556743912      -10.8704224687       -5.3533964437
 H        12.1402538422       -9.6067001034       -5.8241117647
 H         9.5845476337      -10.0406944612       -7.2939340969
 H        11.1732940332      -10.5286162612       -7.8391354236
 H         8.0768413423       -5.7827541293       -9.6068922496
 H         9.2695814713       -5.3432063533       -8.3906846659
 H         6.6290916456       -6.5144410106       -7.2278450949
 H         6.5282414075       -5.0239896959       -8.1390599791
 H         4.1663681374       -2.3799808783       -5.3168923174
 H         3.7683383211       -4.1007816928       -5.4088740682
 H         3.9011538563       -2.5024474135       -7.9267588079
 H         2.2899718376       -2.4582360186       -7.1315278145
 H         0.1963998690       -4.1525712482      -11.2048441589
 H         1.4874880256       -3.2264126996      -12.0392402761
 H        -0.4338297893       -2.2025569184      -12.6091837908
 H         0.0780055352       -1.1000911015      -11.2781806796
 H        -5.2272148393       -1.8949058715       -9.8195476129
 H        -4.3647443088       -3.4312870303       -9.7313352197
 H        -6.4560855988       -4.4645731608      -10.2479704047
 H        -5.7320596971       -4.2666359928      -11.8282706151
 H       -10.9371975474       -2.1650452848      -12.2049817419
 H        -9.8743915917       -1.5986043504      -10.9975652420
 H       -11.2881792530       -1.7458826533       -9.2666301394
 H       -12.3044519793       -3.1355025476       -9.9102763802
 H       -15.6285894769        0.2241253432       -8.9191947698
 H       -16.8962875531        0.3890833966      -10.1651837936
 H       -16.5601386021        2.6677213227       -9.5532146200
 H       -15.3499982794        2.7418516604      -10.7250411168
 H       -10.9908826223        3.1716311539       -8.8582300405
 H       -11.2774471458        4.9689660574       -9.2375277800
 H       -10.6482693270        3.0084496236      -11.3957847152
 H        -9.3386161857        3.6336688164      -10.5975104161
 H       -11.7551792667        5.3681298849      -15.8247553999
 H       -12.0819370793        6.0015275802      -14.2477469707
 H       -14.2389373891        5.3550791230      -14.8657306070
 H       -13.5716338069        4.4112183344      -13.6053591478
 H       -17.1234108865        4.2086017579      -18.3695675069
 H       -15.7559782105        5.3475474964      -18.4573211774
 H       -18.0350482303        5.4392958596      -16.5335885226
 H       -17.9739514075        6.7184871759      -17.8123696838
 H       -17.4741420211        5.1080719520      -12.7527578667
 H       -16.6273887918        6.6449446988      -12.2764860741
 H       -16.0196326091        5.7648664824      -13.6380124319
 H       -15.5791978234        8.3977775623      -14.3108940946
 H       -17.0242237563        8.7860089846      -13.6023367340
 H       -16.5968205890        9.7718908467      -14.9884359020
 H       -19.4870965376        7.8782555616      -16.3021712503
 H       -18.4974630456        9.2774686401      -16.3681939539
 H       -19.1757372924        8.8537064912      -14.7977104867
 H       -13.8894252949        4.0668828045      -18.9162396588
 H       -12.5418070403        4.2096936615      -17.7280101596
 H       -13.8588645213        5.3726840525      -17.7009083669
 H       -15.4078897289        1.9912815238      -18.3099198304
 H       -14.9417556642        1.3769651101      -16.6639029576
 H       -13.6282706497        1.5532800881      -17.8849076390
 H        -8.7566967931        6.8000739990      -13.7001919948
 H       -10.6025604949        7.1640962458      -13.4003940285
 H        -9.9722385202        6.5399397363      -14.8803435999
 H        -8.7460086576        3.2665518056      -13.0209635009
 H        -7.8555621889        4.6433324105      -12.4699790364
 H        -8.0641424517        4.4348150717      -14.1904429726
 H       -15.8195660401        4.6403775926       -9.3416895905
 H       -14.7776048658        5.2880834431      -10.4912327348
 H       -14.8282592787        5.9385752279       -8.7346195323
 H       -13.9005023580        4.5633902102       -6.6268827021
 H       -12.7407611701        5.4057760367       -7.6809431823
 H       -12.5191275782        3.7231600319       -7.0512119133
 H       -14.0039867342       -2.1671902228      -12.8221314004
 H       -15.5517229898       -2.5349118827      -11.9094218804
 H       -14.1043484011       -3.3624790131      -11.5525259630
 H       -14.4358155254       -2.9053195403       -9.2157220056
 H       -15.8089312607       -1.8172877184       -9.2771498326
 H       -14.3217753875       -1.3736822945       -8.4659515214
 H       -10.0160476084       -3.7594350442      -13.7421654649
 H        -8.4023602861       -3.5743328507      -14.3198750243
 H        -9.1231802823       -2.1845891809      -13.4132257782
 H        -8.8807502786       -5.7196699595      -13.0473777603
 H        -8.5409118016       -5.8967737662      -11.2568072878
 H        -7.2642142463       -5.6023795235      -12.6046744463
 H        -3.2132902825       -1.0610431674       -9.2387676062
 H        -3.9619083339        0.1100131405      -10.1152955272
 H        -2.2888793383        0.2666822255       -9.9075211934
 H        -1.5946056994       -0.0751418980      -12.5661331014
 H        -3.3025099374        0.1866365392      -12.7337506047
 H        -2.7122875105       -1.2421454402      -13.4920931484
 H         1.4936380891       -6.0400432539      -10.7380243067
 H         2.1313440627       -6.5548839557       -9.2689695437
 H         3.1015941577       -5.7111839867      -10.3825259073
 H        -0.2196033834       -5.3396824306       -8.6702359777
 H        -0.1735082529       -3.6738012078       -8.3037323731
 H         0.5996474925       -4.7860464804       -7.1449653254
 H         5.4634199675       -5.7256188313       -5.2678432410
 H         5.2415592108       -4.3518039392       -4.1370093718
 H         6.6414628182       -5.3502254829       -3.8902923731
 H         8.1522160793       -2.4072800035       -5.5405070757
 H         7.7881624081       -3.0054850374       -3.9607883995
 H         6.6235780703       -2.1029384447       -4.7292204598
 H        10.5515780116       -6.3653419528      -10.6102020625
 H        11.9552660905       -7.4125772642      -10.3092655594
 H        11.5057730925       -6.0638696060       -9.1736706647
 H         9.1713580276       -9.6736787530       -9.6090915542
 H        10.8247181820       -9.6976523466      -10.1022188951
 H         9.5578111221       -8.6751519017      -10.9895319843
 H        10.3539280722      -10.3839018023       -1.6829657395
 H        10.8037811740      -11.0652050427       -3.3829072886
 H         9.1700068146      -10.5580440421       -2.9159332698
 H         8.4257003202       -8.2021073372       -3.1892374641
 H         9.5760633887       -6.8638495486       -3.0202754225
 H         9.4248564388       -7.9173566096       -1.7395265487
 H        14.8947140381       -5.7021194214       -7.0581401165
 H        13.8047639329       -6.9058423858       -6.2466066810
 H        15.1700917523       -6.1350940307       -5.3813247905
 H        15.3002578345       -4.7492736164       -3.9945555791
 H        14.3015089649       -3.3047966624       -3.8463518070
 H        15.3756014307       -3.4071966128       -5.0772408404
 Na       10.6408414962       -6.1711472107       -6.0256576577
 Na      -12.7811327794        1.8023037186      -12.9086110821
