232

 C        13.7014572419       -2.9211546926       -7.3131753308
 C        12.9402235020       -3.9304213655       -6.4536862475
 O        11.7807335254       -4.0637933402       -6.7426358250
 C        13.7022683814       -4.8024991311       -5.2983129913
 C        12.6003934037       -5.4256168614       -4.2826665990
 O        11.4107471516       -5.2113448198       -4.2491010167
 C        13.2676855861       -6.1851804336       -3.1356384006
 C        12.1476771030       -6.9752988926       -2.3686187477
 C        11.9147065394       -8.3676802439       -3.0420211621
 O        12.8448862110       -8.9212862422       -3.6520920309
 C        10.4630045063       -8.8269741579       -3.3712265628
 C        10.2660421124       -8.8727432825       -4.9747173055
 O         9.6537814220       -7.9917176036       -5.4860864589
 C        11.0221590713       -9.9070634851       -5.8392572280
 C        10.6355898588       -9.7507652566       -7.3267493282
 C        11.0596322944       -8.3877788920       -7.8243862901
 O        11.9426428943       -7.6720056405       -7.3192908338
 C        10.2320842710       -7.9289500090       -9.1469713062
 C         8.7983428153       -7.3964953857       -8.7186774049
 O         7.9448654108       -8.2173318042       -8.3550099748
 C         8.4145284669       -5.8756437897       -8.7321772782
 C         7.2191835526       -5.6355577187       -7.7715543203
 C         7.6762149595       -4.8741269846       -6.4854608041
 O         8.8627233402       -4.7905583675       -6.1534225522
 C         6.5583712176       -4.0339483299       -5.6858813295
 C         5.3774275609       -3.3766180717       -6.5878441899
 O         5.7339300033       -2.7764014714       -7.5996568527
 C         3.9966778739       -3.0720887280       -6.1627787227
 C         3.0738434551       -2.9430735323       -7.2916533545
 C         2.8964862989       -4.3236168787       -7.9019396534
 O         3.5523509903       -5.2721392060       -7.5442729642
 C         1.7127358599       -4.4522951423       -8.9405566707
 C         1.5540509826       -3.1437771373       -9.8328263213
 O         1.9646079791       -2.0211593671       -9.4762605586
 C         0.7919714133       -3.2439756727      -11.1725540480
 C        -0.1772014744       -2.1433130516      -11.6962922077
 C        -1.5694570858       -2.2868891799      -10.9950572737
 O        -1.7635695965       -3.0563136090      -10.0663305406
 C        -2.7947382139       -1.3856594937      -11.4414545577
 C        -4.1711997679       -2.2413536232      -11.6928225494
 O        -4.6036975802       -2.3380958862      -12.7852260105
 C        -5.0521486270       -2.6996683139      -10.4573020085
 C        -6.1791959761       -3.6187851593      -10.8111310736
 C        -7.4290621839       -2.9946640893      -11.4770110450
 O        -7.5789432513       -1.7815671609      -11.4638534104
 C        -8.6191522344       -3.9293990295      -12.0486659680
 C        -9.8517551404       -3.7046406772      -11.0259572537
 O       -10.3180491733       -4.6079963958      -10.4139052750
 C       -10.4673251447       -2.3094154437      -11.1129618098
 C       -11.7692910468       -2.2109897612      -10.2585589681
 C       -12.6249153908       -1.1351552431      -10.7423667523
 O       -12.1514360393       -0.1434364506      -11.3247135152
 C       -14.2328281683       -1.3217573208      -10.5992851169
 C       -14.8995886232        0.0628819429      -11.0018640017
 O       -14.7082216641        0.5101323132      -12.0983659389
 C       -15.8380355322        0.7365237103       -9.9588233724
 C       -15.6331740176        2.2069070717       -9.8163744370
 C       -14.5427518401        2.5354300416       -8.7397255346
 O       -14.2107649384        1.7191485516       -7.9166439277
 C       -13.7999406990        3.9992650358       -8.7897560577
 C       -12.6404139947        3.7516518735       -9.7943212430
 O       -12.9388940029        3.3326631603      -10.9360409120
 C       -11.1542970182        4.1273838475       -9.4781097360
 C       -10.3406877575        3.9671492574      -10.7086065435
 C       -10.6046058952        5.1083991052      -11.7763371301
 O       -11.0770467571        6.1796958556      -11.5377016981
 C        -9.9506568482        4.9126307763      -13.2643180891
 C       -10.9661347575        4.2340399184      -14.0427677493
 O       -10.9631555240        2.9898022566      -14.0114166272
 C       -12.0557484569        5.0553461511      -14.6582744546
 C       -13.4848163080        4.5174232846      -14.5887650616
 C       -13.8896204993        3.3453787913      -15.4123484982
 O       -14.0072770980        2.2611746736      -14.8354085762
 C       -14.4279142156        3.4647845967      -16.9141961521
 C       -15.8241856834        3.9848775945      -16.6655160208
 O       -16.4051282203        3.7145158852      -15.5873432083
 C       -16.6006452540        4.7886995456      -17.6515036508
 C       -17.5087192202        5.8525054496      -16.9379024996
 C       -16.6327210343        6.8769097058      -16.1127314686
 O       -15.4387313318        6.6807250912      -15.9615813523
 C       -17.4889395826        7.7569188423      -15.0947230704
 C       -17.9143055676        6.5718783853      -14.1170684430
 O       -19.0902947452        6.1913604644      -14.0928680337
 C       -16.9098700605        6.0491802386      -13.2422113066
 C       -16.7573957423        8.7756748818      -14.1978022277
 C       -18.7276767674        8.3765167262      -15.8509143684
 C       -13.5438658115        4.2925601181      -17.8857694843
 C       -14.6211239763        2.0477447752      -17.5361498538
 C        -9.7000993678        6.4248100347      -13.7295478064
 C        -8.5709302033        4.2892115583      -13.1934034333
 C       -14.6778107949        5.0389284213       -9.5018324622
 C       -13.2627919206        4.3545627241       -7.4158763400
 C       -14.6042253136       -2.3206492765      -11.7341682074
 C       -14.5811866242       -1.9209868509       -9.2538729972
 C        -9.0047630153       -3.4439925514      -13.5335587875
 C        -8.2448063042       -5.4142790831      -12.1451353973
 C        -3.0436957786       -0.4333037407      -10.2403389467
 C        -2.4949385218       -0.5374239570      -12.6344524537
 C         2.0040251358       -5.5443460408       -9.8837613349
 C         0.4741412534       -4.7428978047       -8.0808153190
 C         5.9243322934       -4.9597472896       -4.6145280666
 C         7.3292086771       -2.8538189253       -5.0810174836
 C        11.1795199582       -6.8025701271       -9.8005436667
 C         9.9825834229       -9.0238183791      -10.1667537146
 C        10.2961755303      -10.2675872584       -2.7184700759
 C         9.3718983349       -7.9172596513       -2.7853153702
 C        14.3768690113       -5.9169607870       -6.0965078188
 C        14.6903913609       -4.0647364487       -4.4505612290
 H        13.5201945846       -1.9366523428       -6.8483367709
 H        13.2222209555       -2.9340566592       -8.2638175181
 H        14.7611789186       -3.1903123324       -7.4044103445
 H        13.7920389346       -5.5168525484       -2.5310364327
 H        14.1083173048       -6.7843930770       -3.6188502692
 H        11.2373089657       -6.4356273500       -2.5070309145
 H        12.4346907039       -7.2064921518       -1.3353382956
 H        10.6451909210      -10.8599593318       -5.4330434591
 H        12.0803703565       -9.6972017506       -5.7127137068
 H         9.5508868897       -9.7315217046       -7.3268239293
 H        10.9259975965      -10.5077645263       -8.0326826671
 H         8.1368764200       -5.6421392586       -9.7425797434
 H         9.2899133596       -5.2917884011       -8.4061798684
 H         6.8669529434       -6.6169909333       -7.4060375508
 H         6.4060527938       -5.1550292237       -8.2574928476
 H         4.2542459279       -2.1979082203       -5.5986616211
 H         3.6130566601       -3.8377972480       -5.5042271245
 H         3.4003246573       -2.2626003072       -8.0623111491
 H         2.1231967253       -2.6190520628       -6.8240610027
 H         0.2654014974       -4.2405316310      -11.4005514499
 H         1.5862097565       -3.1474778669      -11.9572217770
 H        -0.2802451583       -2.2589018136      -12.7285736023
 H         0.0869739092       -1.1359804390      -11.4225193547
 H        -5.3442306496       -1.7682771831       -9.9996710133
 H        -4.6035949799       -3.2691020739       -9.6975830302
 H        -6.4267157821       -4.1003679178       -9.8809435511
 H        -5.7887402760       -4.3700628210      -11.3550889010
 H       -10.7466989796       -2.2467331589      -12.1088060681
 H        -9.7591972049       -1.5463326885      -10.9650960318
 H       -11.4887477320       -2.2190086818       -9.2098942063
 H       -12.3903234032       -3.0882392073      -10.4833835040
 H       -15.6303843584        0.2772039568       -8.9685937568
 H       -16.8347063105        0.5302463195      -10.2970664310
 H       -16.5842847813        2.6561297656       -9.3600964079
 H       -15.4760421145        2.8666338133      -10.6907612283
 H       -10.8126238488        3.3842678736       -8.8413959591
 H       -11.0925410582        5.1433578654       -9.1734055575
 H       -10.2994879394        2.9721034474      -11.1983807044
 H        -9.3306907620        4.1331972557      -10.5106843392
 H       -11.7620472982        4.9446864168      -15.7157239370
 H       -11.9988019358        6.1199066739      -14.4185244829
 H       -14.2139947915        5.3356534623      -14.9023235412
 H       -13.7550958466        4.3867481114      -13.5404534544
 H       -17.0305401129        4.0400716030      -18.3477267595
 H       -15.9507344767        5.4211216227      -18.2670568813
 H       -18.2554555095        5.3777665459      -16.2984869130
 H       -17.9930346619        6.4816760911      -17.7149505574
 H       -17.4656627579        5.3347090144      -12.7095338438
 H       -16.5121525326        6.8490845616      -12.5844056381
 H       -16.0544265274        5.7582587240      -13.7747740727
 H       -15.8913079294        8.3525396467      -13.6395485371
 H       -17.4800057240        8.9056903855      -13.3553164288
 H       -16.4993557776        9.7017694229      -14.7150085811
 H       -19.3860644735        7.5865775388      -16.2830408439
 H       -18.3480852560        8.7922064093      -16.8291976122
 H       -19.2036367611        9.1079399480      -15.2456335399
 H       -13.5450508908        3.8364727326      -18.8930160848
 H       -12.4895612360        4.3256081055      -17.5340883905
 H       -13.9202061820        5.3057760574      -17.9045546668
 H       -14.9307611661        2.2241489422      -18.6145783970
 H       -15.5052387246        1.6708946923      -17.0166648603
 H       -13.8098355425        1.3728366000      -17.4601581299
 H        -8.6176020134        6.5089360108      -13.6933280484
 H       -10.3247505325        7.0995562027      -13.1660847538
 H        -9.9468705291        6.4803710085      -14.7578004591
 H        -8.6468610609        3.1880691056      -13.1721282056
 H        -8.0227550386        4.6004572670      -12.3240048460
 H        -7.9967592356        4.5667842691      -14.0348196974
 H       -15.7098188365        4.8870265818       -9.2104009403
 H       -14.7642547903        4.9562463122      -10.5555839968
 H       -14.2576880309        6.0203361668       -9.2396500623
 H       -13.8698530630        4.1053388872       -6.5367443808
 H       -12.9980490262        5.3769095737       -7.3854014786
 H       -12.3471023049        3.7327905818       -7.1184406086
 H       -14.6374964182       -1.8233467136      -12.6521489947
 H       -15.6089964413       -2.7326625005      -11.5319272353
 H       -13.8768051849       -3.1943068966      -11.8889706057
 H       -14.1576509657       -2.8727984584       -9.1260622663
 H       -15.6949345726       -2.0138214154       -9.1479912913
 H       -14.2479063007       -1.3258082235       -8.4014110232
 H       -10.0115276094       -3.6465937107      -14.0397908375
 H        -8.3454293853       -3.9472106184      -14.2764526753
 H        -8.7882807667       -2.3873875330      -13.5906480367
 H        -8.8029722807       -6.0094266754      -12.9706687710
 H        -8.3248960997       -5.9027993334      -11.1601229608
 H        -7.2233968750       -5.5158565108      -12.6094302900
 H        -3.2098723898       -0.7699937358       -9.2276979822
 H        -3.9682307660        0.0562234619      -10.4979134767
 H        -2.3211614971        0.3670823681      -10.3232350226
 H        -1.6608103352       -0.0204764772      -12.4851307247
 H        -3.3550919653        0.0961413641      -12.9229159865
 H        -2.3147233418       -1.2941983443      -13.4531172556
 H         1.1337742631       -5.7642632092      -10.5689724818
 H         2.1149704608       -6.4930187381       -9.3313411371
 H         2.8412309089       -5.4498193143      -10.5515984157
 H         0.2118554135       -5.7945843202       -8.0165889246
 H        -0.3975478412       -4.2627248038       -8.5482366018
 H         0.6785672218       -4.3135536807       -7.0219420911
 H         5.8361451810       -5.9528367002       -5.0754287422
 H         4.9591090499       -4.6124147315       -4.2306542879
 H         6.4869383297       -4.9351379167       -3.6659885759
 H         8.1110270680       -2.5126004081       -5.7070616475
 H         7.8655273965       -3.0480666572       -4.1675301400
 H         6.7353159778       -1.9732022566       -4.7117605003
 H        10.6104055581       -6.3788206446      -10.5642450544
 H        12.1509471864       -7.2732762618      -10.0997295094
 H        11.2428867617       -6.0019887451       -9.1065079237
 H         9.4972286951       -9.8894852864       -9.6741186898
 H        10.9352868781       -9.4382723884      -10.4792786160
 H         9.3363491651       -8.6054267734      -10.9502782434
 H        10.1363907337      -10.1165743559       -1.6537671481
 H        11.0916978881      -10.9424221735       -3.0273032437
 H         9.2818913976      -10.6632592152       -3.0411572809
 H         8.4934447109       -8.2851121175       -3.2922592283
 H         9.4727560209       -6.8403890339       -3.0053251797
 H         9.2610071669       -7.9360449505       -1.7370377168
 H        14.7745440193       -5.5348682693       -7.0306971292
 H        13.5819192941       -6.5743969645       -6.3159479743
 H        15.1795074777       -6.2949527211       -5.4299112910
 H        15.2027652708       -4.5722182244       -3.6696259667
 H        14.3779159967       -3.0810302378       -4.1561756948
 H        15.4771721940       -3.7087263219       -5.1395421702
 Na       10.6371904952       -6.2153121773       -6.1404375582
 Na      -12.7338055717        1.8127335980      -13.0118113918
