232

 C       -18.2510824636       -6.5431162450       -2.4710794584
 C       -18.2112603996       -8.0535076004       -2.2184948104
 O       -17.2816811465       -8.6625858576       -2.7685027284
 C       -19.2371853688       -8.7716183594       -1.2988312788
 C       -18.4033710974       -9.5658560638       -0.2834596623
 O       -17.8795734934      -10.6636271749       -0.5308231151
 C       -18.2712421856       -9.0967532390        1.1620547904
 C       -16.7608971951       -9.1034073461        1.5853074606
 C       -15.8846666875       -8.2779159173        0.5096770290
 O       -16.5299303542       -7.5892764385       -0.2653970156
 C       -14.4018323730       -8.4185977792        0.4258165165
 C       -14.1267077479       -9.5359572306       -0.7715288994
 O       -14.4627302849      -10.6592677174       -0.6017600580
 C       -13.3423428923       -9.0374493102       -1.9809746919
 C       -12.8029151746      -10.2221967106       -2.9163076279
 C       -13.6935621542      -10.5866347752       -4.1212070366
 O       -14.9021087249      -10.4465632489       -4.1409087599
 C       -12.9948451709      -10.8938977709       -5.4864480806
 C       -12.7333495056       -9.3446595578       -6.0788558623
 O       -12.3060395464       -8.4937176678       -5.3584953876
 C       -12.9489806209       -9.1821948557       -7.5488445973
 C       -12.5175796842       -7.8315617768       -7.9512825315
 C       -13.4290319906       -7.2714878582       -9.0753919731
 O       -14.4272748304       -7.8952252690       -9.3792777537
 C       -13.1395565237       -5.9109730921       -9.7922098945
 C       -11.8242116558       -5.3263000636       -9.4282289003
 O       -10.8329041369       -6.0582388813       -9.1840863846
 C       -11.6501050947       -3.7723605793       -9.2685850619
 C       -10.6120526638       -3.1144320702      -10.3031130322
 C       -10.6287902905       -1.5218442558      -10.2778818130
 O       -11.6536355280       -0.8728008180      -10.3812718905
 C        -9.2729522668       -0.7777608939      -10.0679951406
 C        -8.1550256615       -1.3830935677      -10.9933683326
 O        -8.3581180559       -2.2117548244      -11.8567039269
 C        -6.7060001571       -0.9413572602      -10.7260490510
 C        -5.8389520851       -1.4435564002      -11.8667641824
 C        -4.7387387740       -0.4719449928      -12.1344881236
 O        -4.8908516492        0.6127371370      -11.6011329754
 C        -3.4124622303       -0.8726682786      -12.8523691129
 C        -2.1056720341       -1.2389958293      -11.9678700059
 O        -1.1411366140       -1.8231163719      -12.3818243235
 C        -2.0335558112       -0.4398725785      -10.7481904414
 C        -0.9429756424       -0.9933185285       -9.8669219261
 C        -0.2685412354        0.0054752991       -8.8984232204
 O        -0.3982678712        1.2697807803       -9.0118639324
 C         0.8532392014       -0.5066223164       -7.9174737941
 C         2.1761099220        0.0749462476       -8.6837953058
 O         2.8221639871       -0.6775821272       -9.4018347749
 C         2.5785967823        1.5225358313       -8.4305277930
 C         3.6297571119        1.9515476933       -9.3705776577
 C         4.0748313254        3.4649885153       -9.1874116993
 O         3.4311267954        4.1570871444       -8.4406106488
 C         5.4209366858        3.8348812053       -9.9605035536
 C         4.8400824961        4.3356577418      -11.3565584560
 O         4.9219760546        3.5672736691      -12.2714041505
 C         3.9449557068        5.5450409554      -11.3375115343
 C         4.4974364423        6.8398390795      -11.9923041390
 C         4.5957154131        6.9292309043      -13.5192900637
 O         4.0396953077        6.0735478617      -14.1835575613
 C         5.2970557420        8.2266032822      -14.1488977846
 C         5.9604951002        7.7980853586      -15.5886170426
 O         5.5049180921        8.0153182524      -16.6618289490
 C         7.2828667555        7.0395016580      -15.4402181739
 C         7.9477292029        6.6116098552      -16.7110117427
 C         7.3362745534        5.3130729641      -17.1933143447
 O         6.4854535990        4.6865312282      -16.6122790404
 C         7.8185900387        4.6985576776      -18.4434665251
 C         9.2227425611        4.2271683793      -18.1681373747
 O         9.7433683075        4.2463094475      -17.0709152701
 C        10.0737545958        3.6128327224      -19.2680697125
 C        11.2280424733        2.6464568764      -18.9238879948
 C        10.5603548394        1.3322909983      -18.5640547088
 O         9.5278699001        1.0115545795      -19.1660211529
 C        11.1927548237        0.3184461494      -17.5758208513
 C        10.4712322981        0.5418195361      -16.1509516842
 O        11.0970998504        0.5745505468      -15.0801826221
 C         8.9667455542        1.0334166130      -16.1255021858
 C         8.1125273256        0.5167288649      -14.8017489911
 C         6.7493794042        1.1830965035      -14.7855930409
 O         6.7697089068        2.3998508252      -14.8557546248
 C         5.4369458921        0.2855142587      -14.5173197713
 C         4.2870577210        0.9621769165      -15.3739865276
 O         4.1358893867        2.1895968941      -15.2781580590
 C         3.2938677245        0.1469003688      -16.2835177043
 C         5.7259122022       -1.2455425875      -14.9711358514
 C         4.9557911298        0.3542936809      -12.9650834010
 C        10.8853399027       -1.1329482706      -18.0066260728
 C        12.7021127395        0.5539964383      -17.5463317114
 C         6.8984709032        3.5538952904      -18.9289981521
 C         7.7766303577        5.7706076759      -19.5877867080
 C         4.3736862432        9.3822062449      -14.3692653984
 C         6.3834824862        8.7264311685      -13.1649008152
 C         6.1944463332        4.9148291173       -9.1944172370
 C         6.4129443561        2.6355855986      -10.1911924530
 C         0.5961179396        0.0525589100       -6.5259010972
 C         1.0025063233       -2.1114946730       -7.7731558463
 C        -3.7359755514       -2.0157943906      -13.8683703157
 C        -2.9627345308        0.3618631870      -13.6729260935
 C        -9.4432473740        0.6828864200      -10.3595533082
 C        -9.0166683410       -0.8951486298       -8.5177510862
 C       -13.1411604288       -6.3155071241      -11.2664703797
 C       -14.3069372741       -4.8777955235       -9.5811859499
 C       -11.4251913972      -11.2956266266       -5.4558856311
 C       -13.7014942466      -11.9168300900       -6.4419198020
 C       -13.7461154350       -7.0645654186        0.1323923685
 C       -13.8164299680       -9.0397963174        1.7078248635
 C       -20.2265396751       -7.7599348846       -0.6551916845
 C       -20.0148575791       -9.7229590516       -2.2355299740
 H       -18.9744802428       -6.3809264959       -3.3118451810
 H       -17.3138632737       -6.1198020512       -2.8337108913
 H       -18.6206890760       -6.0712518607       -1.5732154311
 H       -18.7777804175       -9.7854660599        1.8051221151
 H       -18.5734542746       -8.0912054035        1.3491505294
 H       -16.4332648363      -10.1022640782        1.6591185596
 H       -16.5998497526       -8.5452062160        2.5034138116
 H       -12.4471952815       -8.4483332680       -1.6318284420
 H       -14.0804638965       -8.4048109556       -2.4706236032
 H       -12.6026512494      -11.1506826761       -2.3596398705
 H       -11.9000129754       -9.9388859125       -3.3028648371
 H       -14.0253030737       -9.3338708102       -7.8138376097
 H       -12.3587032452       -9.9613293528       -8.0284070355
 H       -11.4767569800       -7.8317993024       -8.1974573212
 H       -12.5662121288       -7.0226901285       -7.0970209866
 H       -11.3219809627       -3.5595431447       -8.2673492392
 H       -12.6021093253       -3.1602724569       -9.2311188942
 H       -10.8583090834       -3.4644407337      -11.3479691869
 H        -9.7098667597       -3.6759047522      -10.0495724664
 H        -6.3582106319       -1.2050716733       -9.6402284607
 H        -6.6170140120        0.1669263442      -10.7947525581
 H        -6.4689971443       -1.7485401476      -12.6814864288
 H        -5.2909698392       -2.3562192484      -11.4724784441
 H        -2.8460228195       -0.2350952682      -10.1172172198
 H        -1.6581456164        0.5798805836      -11.0478775191
 H        -0.0897385631       -1.3280244694      -10.4449137356
 H        -1.3284266722       -1.7802425699       -9.1157659226
 H         2.8557736662        1.7049546724       -7.3702460169
 H         1.7374454202        2.0935416604       -8.4429824923
 H         3.1754127468        1.8148671557      -10.4078543377
 H         4.4560530001        1.1840452992       -9.3589614871
 H         3.7659314839        5.9181565285      -10.3842658276
 H         3.0538138669        5.2758615375      -11.8030570259
 H         5.4405927014        6.9556798315      -11.4308564825
 H         3.9789071018        7.7218536084      -11.5853959050
 H         7.2495368238        6.2018773211      -14.7293690590
 H         7.9519668226        7.7439663292      -14.9917652391
 H         8.8849394145        6.4057374408      -16.5593565368
 H         7.9039935489        7.5040429520      -17.4294059668
 H        10.5913058076        4.4374767165      -19.7744693350
 H         9.3871676553        3.0529049411      -19.8541395890
 H        11.9212904626        3.0534284600      -18.1853855991
 H        11.8825545422        2.6032898876      -19.8147578399
 H         8.4053267798        0.5252630135      -16.9159499027
 H         8.8228304455        2.0836444252      -16.3461892871
 H         8.6902034162        0.9034061992      -13.9576682849
 H         8.0359896494       -0.5639707720      -14.7638635415
 H         3.9029121907       -0.5709241944      -16.8748897808
 H         2.8448544731        0.8278032759      -16.9394508180
 H         2.5127769354       -0.4000595794      -15.6004930832
 H         4.8216668837       -1.7536310958      -15.1442587151
 H         6.3254046375       -1.6093793840      -14.1122297761
 H         6.2532494296       -1.2784414278      -15.9353092559
 H         4.0502543098       -0.2640187133      -12.9037806639
 H         4.7098912858        1.4680841822      -12.7670717669
 H         5.7643893485       -0.0437867398      -12.2490296452
 H        11.8377850087       -1.6484810226      -17.8384721351
 H        10.6812051849       -1.0459594983      -19.1089871891
 H        10.0447992610       -1.5678060288      -17.4120949143
 H        13.1927680314        0.7667360583      -18.5047136644
 H        13.1131592314       -0.2412795737      -16.9154385588
 H        12.8620472846        1.5111975572      -17.0126333687
 H         5.8615384868        3.8164920702      -18.7221464606
 H         7.1086668087        2.5831312007      -18.3622979144
 H         7.1804107038        3.2979016766      -19.9714648430
 H         8.7155234624        6.1052434492      -19.8984024617
 H         7.2260870396        6.7398634533      -19.2401379867
 H         7.2366709298        5.4200838505      -20.4254593743
 H         4.8261191618       10.0090862839      -15.1481790761
 H         4.1999689817       10.0047794711      -13.5271695072
 H         3.4884770842        8.9919491620      -14.8805371043
 H         6.8515961105        9.5233352327      -13.6927427008
 H         7.1522411357        8.0312541451      -12.8758159243
 H         5.9141524006        9.0993591804      -12.3211089928
 H         6.7444280965        4.3676225720       -8.4392487858
 H         5.3154184439        5.5694076955       -8.8366920875
 H         6.8814556500        5.4193785216       -9.8781064803
 H         7.3267503088        2.8882315490      -10.7679649847
 H         6.0042654006        1.9660776454      -10.9282584673
 H         6.6430641035        2.2562437698       -9.1780272813
 H         0.6495060080        1.0764860646       -6.4872107480
 H         1.4037003381       -0.3542363169       -5.9702872055
 H        -0.2875931042       -0.2693125970       -6.0481625577
 H         0.0609063501       -2.6412183525       -7.6679422592
 H         1.7167009740       -2.3950009026       -7.0126561540
 H         1.4256998348       -2.5885073681       -8.6774491434
 H        -4.2367484948       -2.9250118149      -13.4610082845
 H        -2.8020808332       -2.4242722933      -14.3814717496
 H        -4.3121267298       -1.4048455149      -14.5269753189
 H        -2.1512542704       -0.0884996079      -14.2956236785
 H        -2.5348739214        1.2296927905      -13.1628492189
 H        -3.8060790390        0.6853162180      -14.2229222369
 H       -10.1993461718        1.0087926104       -9.5578124716
 H        -9.6925440526        0.9862307439      -11.3615757682
 H        -8.6067511984        1.2783175564       -9.9527679465
 H        -9.9783021249       -0.5597196863       -8.0616104322
 H        -8.2357775977       -0.2831264684       -8.1234806954
 H        -8.8946043784       -1.9442922076       -8.4511285821
 H       -12.8509647953       -5.6039250492      -12.0346677167
 H       -14.1500808012       -6.6895873119      -11.5802927960
 H       -12.5458010350       -7.2226902770      -11.3036573579
 H       -15.2399128643       -5.4130360525       -9.7028951228
 H       -14.2874702081       -4.1384911996      -10.3816540350
 H       -14.2282555211       -4.5263600211       -8.5003769704
 H       -10.8306402889      -10.3650595573       -5.2510824688
 H       -11.1400235212      -11.6717230617       -6.4441597513
 H       -11.1492394324      -12.0185604414       -4.6931493206
 H       -14.7461568493      -11.9961094918       -6.2418884025
 H       -13.2041903416      -12.8208257773       -6.1873100488
 H       -13.3633838266      -11.7346589768       -7.4201617924
 H       -13.8821022906       -6.6873131639       -0.8659672069
 H       -12.6442008631       -7.1533968130        0.2799697600
 H       -14.0314473261       -6.2818042994        0.8549779563
 H       -14.2450388489      -10.0730869381        1.9566964050
 H       -13.9491308355       -8.4199747765        2.6129350459
 H       -12.7571232007       -8.9891272122        1.5023647068
 H       -19.7922837411       -6.9910121538       -0.0434418512
 H       -20.9416796802       -8.2932552620        0.0174612491
 H       -20.9538127239       -7.0995679063       -1.2733539294
 H       -20.5231288141      -10.5642555567       -1.6559256771
 H       -19.3116780601      -10.2866724594       -2.8166008148
 H       -20.7726519790       -9.2236664412       -2.8409749061
 Na      -16.3098646582      -10.8040390484       -2.4671542398
 Na        5.2219884961        4.2950492098      -14.7763805791
