232

 C        13.9197995055       -2.7188868506       -6.6411139329
 C        13.2729883220       -4.0443732669       -6.1932207097
 O        12.4178441378       -4.6066817949       -6.8453757359
 C        13.8059198442       -4.7598190591       -4.9832435799
 C        12.6085771732       -5.2160383278       -4.0808160525
 O        11.4624749654       -4.9451240168       -4.3417924317
 C        12.8916087591       -5.8407142298       -2.7079123125
 C        11.8497338882       -6.9119969545       -2.3437734514
 C        11.7479102615       -7.9723199740       -3.5135045941
 O        12.7465919035       -8.2064987426       -4.2008168082
 C        10.4567308653       -8.8160649124       -3.6085941600
 C        10.0630950556       -8.8280217236       -5.1893080395
 O         9.3624242076       -7.8557998962       -5.5238722766
 C        10.6496684698       -9.8709567863       -6.1485028758
 C        10.1779437276       -9.6318639251       -7.6239330344
 C        10.6722721358       -8.1746010823       -8.0243976313
 O        11.5108878230       -7.6311972222       -7.3393893845
 C        10.1409246832       -7.6203512534       -9.4332486313
 C         8.7120171898       -7.1779231580       -9.0193485226
 O         7.8699180354       -8.0497861578       -8.7091646090
 C         8.3346836419       -5.6337749446       -8.7938838393
 C         7.0357597965       -5.5738872833       -7.9837903698
 C         7.3580226127       -4.8067768274       -6.7183650557
 O         8.4930923692       -4.8075309382       -6.3225396961
 C         6.1897890216       -3.9821135589       -5.9884198649
 C         5.2237484583       -3.1398334277       -6.8517345412
 O         5.4928923544       -2.7292862928       -7.9835757847
 C         3.7815432949       -2.8017247968       -6.0788871861
 C         2.6869461272       -2.8828065149       -7.1107486491
 C         2.6520835540       -4.1719821919       -7.8608304007
 O         3.5903719440       -4.9850272005       -7.8002029489
 C         1.3704501521       -4.5501962141       -8.6767036144
 C         0.9128665145       -3.2679441579       -9.6351305738
 O         1.0060080169       -2.1073678799       -9.3752383617
 C         0.3413555700       -3.6420961104      -11.0237889729
 C        -0.4397010664       -2.6436704562      -11.9061318299
 C        -1.8399740799       -2.5992436513      -11.4594203461
 O        -2.2906981700       -3.4010474389      -10.6361760466
 C        -2.7675608563       -1.4117878421      -11.9014867018
 C        -4.1445838563       -2.1733796511      -11.9846995461
 O        -4.4605674109       -2.6801809204      -12.9988745500
 C        -5.0611974858       -2.1883077655      -10.7539008891
 C        -6.0690196620       -3.3327796932      -10.8189466149
 C        -7.1928750901       -3.0656568475      -11.7917145631
 O        -7.4633705671       -1.9262783239      -12.1218804794
 C        -8.2698435873       -4.2036522511      -12.0072731595
 C        -9.6800167273       -3.9425059918      -11.4038742569
 O       -10.3382050596       -4.8973312898      -10.9756859609
 C       -10.1741219152       -2.4984025097      -11.2523977950
 C       -11.5593947579       -2.3015319514      -10.5863029132
 C       -12.3492520873       -1.1249774081      -11.0093304604
 O       -11.8856037494       -0.3366124595      -11.8346310756
 C       -13.8829300890       -1.1105712753      -10.5315366662
 C       -14.6086091678        0.2027961284      -10.9884651059
 O       -14.4837733159        0.6074499969      -12.1477294799
 C       -15.7623376136        0.9127786626      -10.1918735995
 C       -15.4448455098        2.3739902263       -9.8860261338
 C       -14.2276846817        2.5734674060       -8.9052294564
 O       -13.7765551778        1.7417879740       -8.1738770375
 C       -13.4834336665        4.0235683822       -8.8409645719
 C       -12.2272008322        3.9416384405       -9.7696214954
 O       -12.2644544187        3.1732360394      -10.7113605466
 C       -11.0393222720        4.8613233308       -9.5296041182
 C        -9.8591058989        4.5749446656      -10.4363975346
 C       -10.1618022220        5.2794826462      -11.8366186701
 O       -10.9091352130        6.2690633711      -11.8621166304
 C        -9.5899620156        4.7153551489      -13.2564721025
 C       -10.9052713124        3.9920873224      -13.8196978932
 O       -10.8858649013        2.7522763444      -13.7891306725
 C       -12.1256677519        4.9166149115      -14.2317516385
 C       -13.5929251874        4.3985453638      -14.1786364390
 C       -13.7677225521        3.2111761223      -15.0968358806
 O       -13.2954773183        2.1470003077      -14.8536037136
 C       -14.4078131836        3.4488532039      -16.5192029266
 C       -15.8802542537        3.9969025944      -16.2682211199
 O       -16.2536272111        3.8212557426      -15.1288803247
 C       -16.7781651764        4.5422429283      -17.3404398380
 C       -17.7345636762        5.6666473603      -16.7252130095
 C       -17.0285458296        6.6951404486      -15.8503787401
 O       -15.8342507792        6.4875682252      -15.7303759328
 C       -17.8636196597        7.5212171186      -14.7958884357
 C       -18.2715019569        6.5436739516      -13.4414125349
 O       -19.4209427554        6.3617020695      -13.1617596268
 C       -17.0954477961        6.0873496152      -12.6390741755
 C       -16.9800502178        8.5603045195      -14.1301108106
 C       -18.9524617842        8.2409391192      -15.6760960389
 C       -13.4297899679        4.3625359567      -17.3272899530
 C       -14.6850291084        2.0049735884      -17.0751212327
 C        -9.0813648201        5.8680128781      -14.1489204022
 C        -8.5539296239        3.5777410990      -12.9826369449
 C       -14.3084423875        5.2311367470       -9.3050213050
 C       -13.1165527723        4.2330514394       -7.3122572647
 C       -14.6261107830       -2.1748391743      -11.3215207033
 C       -13.9867939023       -1.2013141405       -9.0075536532
 C        -8.5585138072       -4.1881858272      -13.5315925089
 C        -7.8459024335       -5.5888612600      -11.5554565534
 C        -2.7364223915       -0.1900954630      -10.9660113326
 C        -2.2838501102       -0.9920123369      -13.3534634054
 C         1.7764770469       -5.7830650343       -9.5482596341
 C         0.2631916437       -4.8598143301       -7.6869773148
 C         5.5427469834       -5.1418375446       -5.1001356107
 C         6.7817004583       -2.8611471100       -5.1029429016
 C        11.0724046872       -6.4697983667       -9.9135577229
 C        10.1043539613       -8.8580079238      -10.4178825342
 C        10.7766224193      -10.3091171265       -3.1884896330
 C         9.2306606284       -8.1302566138       -2.8814799859
 C        14.4750902141       -5.9523114752       -5.5379740970
 C        14.7233394666       -3.9610193630       -4.0651486359
 H        14.1890886572       -2.1385267380       -5.7525012300
 H        13.1992126843       -2.2164564213       -7.3245178192
 H        14.8846458662       -3.0612701432       -7.1938145331
 H        12.9412684602       -4.9437680277       -2.0011981145
 H        13.8504166543       -6.4198277925       -2.7653025695
 H        10.7834285780       -6.5824069610       -2.1654659373
 H        12.1404238207       -7.5448006903       -1.5159588000
 H        10.2540839706      -10.8217553891       -5.7968253864
 H        11.7428457666       -9.7345581356       -6.1089389973
 H         9.1240852859       -9.6819413709       -7.8340621953
 H        10.5865611376      -10.5233659720       -8.1677505739
 H         8.2576028010       -5.1311374207       -9.8095773769
 H         9.1899917066       -5.1068028791       -8.2822714866
 H         6.7117529149       -6.5673319078       -7.6908251679
 H         6.2995275236       -4.9367380451       -8.4797338756
 H         3.8846756488       -1.7648135744       -5.7261164453
 H         3.6772134018       -3.5074856519       -5.2550027780
 H         2.8892420894       -2.1181888528       -7.8694047454
 H         1.7589026987       -2.6453259147       -6.5726411324
 H        -0.3394510759       -4.4949997435      -10.8407393709
 H         1.1439874990       -4.1185183215      -11.6254907153
 H        -0.4644111952       -3.0173644641      -12.9748815059
 H        -0.0293883006       -1.6485692990      -11.9813785551
 H        -5.5476988147       -1.2651738747      -10.7199924362
 H        -4.4125544921       -2.3393547542       -9.9274315113
 H        -6.6113349210       -3.5759955375       -9.9313267443
 H        -5.3974081182       -4.2290108596      -11.0100454908
 H       -10.1916143629       -2.1401786568      -12.3161968664
 H        -9.3871702358       -1.9187381671      -10.7300111995
 H       -11.3229606116       -2.1931655080       -9.5322243467
 H       -12.1592079217       -3.1730446929      -10.7253692129
 H       -15.9813460944        0.3654740630       -9.2619602002
 H       -16.6530156286        0.8122577107      -10.8598697352
 H       -16.2901775016        2.7777161061       -9.3398613476
 H       -15.1450459912        3.0702746551      -10.7157713592
 H       -10.7761173390        4.7199981632       -8.3775944216
 H       -11.4446988957        5.8961201087       -9.6042029691
 H        -9.7650860938        3.4903474153      -10.6952709187
 H        -8.8595571445        4.8801888580       -9.9091578006
 H       -11.8528931012        5.3394528683      -15.2324612305
 H       -12.1443088900        5.7717994461      -13.5278666579
 H       -14.2196367210        5.2301720605      -14.4167042304
 H       -13.7400167055        4.0819847171      -13.1086364882
 H       -17.3080525849        3.7182616548      -17.7970640759
 H       -16.2150252798        4.9220206493      -18.1782540668
 H       -18.5271690234        5.1813777496      -16.1545982629
 H       -18.3100843184        6.0978117114      -17.5513653093
 H       -17.4300957646        5.8907386772      -11.6416511333
 H       -16.2696039256        6.7571950608      -12.6307126792
 H       -16.7846977714        5.2359411477      -13.2493898693
 H       -15.9029982494        8.1739268507      -14.0332977465
 H       -17.3748891750        8.8333971645      -13.1808083801
 H       -16.9156807936        9.4630418703      -14.8236131967
 H       -19.8129616109        7.6516906320      -16.1601733479
 H       -18.3801490173        9.0528875309      -16.2260235611
 H       -19.4242452850        8.7375343941      -14.8319928687
 H       -13.3710613128        3.8286355745      -18.3242615159
 H       -12.4017318007        4.4029678947      -16.9245791617
 H       -13.8045395850        5.4048737268      -17.4380528787
 H       -15.4385911309        1.9501205043      -17.8496829080
 H       -14.9986802686        1.3702642315      -16.2760683592
 H       -13.7995435657        1.6136707871      -17.6030006961
 H        -8.1013345362        6.1997526496      -13.6897845160
 H        -9.6499649110        6.7198250479      -13.9720083923
 H        -9.0203184887        5.5041781281      -15.1473908873
 H        -8.9221768593        2.7167989714      -12.4569944687
 H        -7.8046434789        4.0476819999      -12.4176162787
 H        -8.0891494209        3.1387458099      -13.8702893812
 H       -15.2080761257        5.1749649891       -8.8498154642
 H       -14.3051115487        5.3932903786      -10.4383039956
 H       -13.7746874881        6.0985429783       -8.9555069786
 H       -13.9012929052        3.8796116257       -6.6790292250
 H       -13.0248825321        5.2649274954       -7.0849874873
 H       -12.1308815294        3.8172712369       -7.0451959443
 H       -14.2425863544       -2.3872364691      -12.3014491196
 H       -15.5603765009       -1.7327796758      -11.6362111576
 H       -14.6770737529       -3.0512049850      -10.6374344884
 H       -13.3865947598       -2.0287769551       -8.5988496388
 H       -14.9902104897       -1.3483585316       -8.6839832079
 H       -13.6440924142       -0.2311862545       -8.6071637857
 H        -9.3274536404       -4.9457056834      -13.7981179666
 H        -7.7110138464       -4.4200111006      -14.1347807436
 H        -9.0243479959       -3.2502355282      -13.8632331267
 H        -8.4451197108       -6.3606066267      -11.9998974750
 H        -7.9663653020       -5.8019582456      -10.5067481750
 H        -6.7683042753       -5.7836642321      -11.7565074886
 H        -2.9141585527       -0.5879772907       -9.9862879789
 H        -3.5165179898        0.5409416574      -11.2222832671
 H        -1.7190062697        0.2851941353      -10.8973777840
 H        -1.2395644627       -0.8414024703      -13.5352948679
 H        -2.8660136492       -0.0869615984      -13.5946565740
 H        -2.4983664538       -1.8561155176      -14.1234618899
 H         1.0562436147       -5.8333913239      -10.3656018339
 H         1.7754437061       -6.8093047818       -9.0917495412
 H         2.7522132480       -5.5123602266      -10.0349405185
 H        -0.6415822725       -4.2771852161       -7.9515838496
 H         0.7417085720       -4.6103311415       -6.7449532124
 H         0.0018773953       -5.9648866120       -7.6368886282
 H         4.9747048832       -5.8368476977       -5.6795008217
 H         4.8926344204       -4.5671745348       -4.3577277915
 H         6.2919286533       -5.7591084569       -4.5604920932
 H         7.0243185017       -2.0367535355       -5.7089719459
 H         7.6843761628       -3.0239509232       -4.4606380195
 H         6.0360019239       -2.3911158543       -4.5410926577
 H        10.6806820293       -6.0358462263      -10.8641752294
 H        11.9360627340       -7.0556978382      -10.0514410599
 H        11.2984717157       -5.7627341149       -9.0817293251
 H         9.2380775341       -9.4961985714      -10.2688448111
 H        11.0626465984       -9.4575660354      -10.4315206841
 H        10.1029609217       -8.3648512147      -11.3977735472
 H        10.8289548911      -10.2977921360       -2.0471459567
 H        11.7557866551      -10.6282502852       -3.5821182769
 H        10.0011162090      -10.9270260927       -3.5916676237
 H         8.3405336770       -8.7458816430       -2.9902528022
 H         8.8748828185       -7.1770063206       -3.2907667512
 H         9.3247106395       -8.1485880025       -1.8225990896
 H        14.9077836665       -5.4894882674       -6.4543688873
 H        13.6976105739       -6.6722124905       -5.7848012320
 H        15.3196603754       -6.2533492729       -4.9215198573
 H        14.9378361201       -4.5281461220       -3.1789183175
 H        14.1675521452       -3.1196211449       -3.6160471429
 H        15.6993723881       -3.6465246799       -4.4322302851
 Na       10.6600824429       -5.8542307332       -5.9817294883
 Na      -12.5253821401        1.6060172218      -12.6913972936
