232

 C        13.9165303844       -2.5863687763       -6.6368701610
 C        13.3148821138       -3.9859308405       -6.2399917252
 O        12.5347608213       -4.4733985451       -7.0171974246
 C        13.8430351067       -4.8148193275       -4.9238831362
 C        12.6448674102       -5.1946243424       -3.9047331369
 O        11.4953951043       -4.8716174096       -4.0662595138
 C        12.9801685247       -5.8890699172       -2.5681364543
 C        11.8415388891       -6.9042375407       -2.3564177129
 C        11.6316146676       -7.9119186676       -3.5189931984
 O        12.5599526676       -8.0597461924       -4.2945825391
 C        10.3900347245       -8.8064641220       -3.6761841085
 C        10.0005089012       -8.7820941628       -5.2113736990
 O         9.3346862744       -7.8766244148       -5.5755121408
 C        10.5125157976       -9.8552248092       -6.2311627305
 C        10.1428863985       -9.4962962264       -7.6433119821
 C        10.7077765417       -8.2109762585       -8.1290877215
 O        11.4921466962       -7.5330415883       -7.4741645529
 C        10.1743616869       -7.6291934088       -9.4482275826
 C         8.6695309424       -7.1472753977       -8.9553923843
 O         7.8253023788       -7.9567522866       -8.6739186562
 C         8.2745924889       -5.6699573676       -8.9038197876
 C         6.9897442190       -5.4843368283       -8.0842226626
 C         7.3194270452       -4.7040619001       -6.7994795219
 O         8.4412257479       -4.6786837301       -6.2731901131
 C         6.1418799487       -3.9900202415       -6.0223076702
 C         5.1256459067       -3.2224553930       -6.8877533510
 O         5.5764335057       -2.7321334046       -7.9210797783
 C         3.8291110265       -2.6690696779       -6.3136128123
 C         2.6501490509       -2.8346267148       -7.2517310056
 C         2.5991164469       -4.2426163861       -7.8810467506
 O         3.5616247697       -4.9825842056       -7.7946673463
 C         1.2749545495       -4.5374202725       -8.6779477626
 C         0.8188871574       -3.4006565965       -9.6539385509
 O         0.9161041217       -2.1594991214       -9.3534758672
 C         0.3635438052       -3.8324108357      -11.0999137501
 C        -0.2631624111       -2.7158158055      -11.8673181014
 C        -1.7478116492       -2.5636787261      -11.4038859696
 O        -2.2290022002       -3.3744306599      -10.6526245039
 C        -2.7663336002       -1.4764380132      -12.0194078263
 C        -4.2308849196       -2.0896992654      -12.1069467660
 O        -4.4995171756       -2.6867680577      -13.1097016259
 C        -5.0783600391       -2.0270303297      -10.8547828783
 C        -6.0951774022       -3.2216416895      -10.7203187512
 C        -7.3465640348       -3.0087130031      -11.6135417407
 O        -7.5574682763       -1.9623819492      -12.1980150332
 C        -8.2585466348       -4.2974468128      -12.0652712826
 C        -9.7093321867       -3.9848469365      -11.4040512506
 O       -10.3792325017       -4.8405717389      -10.9812936154
 C       -10.2642355084       -2.4955898533      -11.4099971391
 C       -11.4917403832       -2.3521593876      -10.5916859814
 C       -12.3178921698       -1.1974407396      -11.0764872393
 O       -11.7968174237       -0.3586476876      -11.8076511142
 C       -13.8745132344       -1.0108146833      -10.5377691787
 C       -14.5753285605        0.2514904869      -11.0994640111
 O       -14.4077659569        0.6712892857      -12.1890449790
 C       -15.6552662031        0.9610490615      -10.1673246518
 C       -15.2106615832        2.3747824605       -9.8961900100
 C       -14.1358764839        2.6133694445       -8.8554624532
 O       -13.6039718274        1.6972899885       -8.2616793841
 C       -13.4849820548        4.0524933155       -8.7357922703
 C       -12.1936257905        3.9964198655       -9.6623407815
 O       -12.2419499896        3.1660094453      -10.5863569250
 C       -11.0076283573        4.9641607418       -9.4626655498
 C        -9.8885704717        4.6349064758      -10.4813502971
 C       -10.0547265184        5.3640236119      -11.7906037938
 O       -10.7757330593        6.2962807685      -11.8215019398
 C        -9.5185314276        4.6831131855      -13.1380780389
 C       -10.8538677963        3.9199946812      -13.7422012677
 O       -10.9225631841        2.7124400794      -13.8598922768
 C       -12.0020624706        4.8697744663      -14.1526188216
 C       -13.4301184835        4.3522369483      -14.1198529049
 C       -13.7063519739        3.1716304464      -15.1077350191
 O       -13.3223479561        2.0495484586      -14.7602286353
 C       -14.4481750906        3.3538396705      -16.5066600555
 C       -15.8613421641        4.0054326873      -16.1677613907
 O       -16.3529569766        3.8754851271      -15.0219953797
 C       -16.8838539511        4.5944977351      -17.2469274132
 C       -17.8471800068        5.5042460928      -16.5236023843
 C       -17.0097180643        6.4971050073      -15.5761967844
 O       -15.8038642473        6.5857543158      -15.5610321055
 C       -17.8879102451        7.5915015118      -14.7214998899
 C       -18.2869872133        6.6318491539      -13.5773539067
 O       -19.3999641670        6.4088763494      -13.1730045448
 C       -17.1250630727        5.9944147670      -12.6869337474
 C       -16.9820776684        8.6479185642      -14.1038259610
 C       -19.0236507867        8.1090185218      -15.6400671189
 C       -13.5680654951        4.2859403050      -17.3450829792
 C       -14.6394745379        2.0280990336      -17.2266769426
 C        -9.1406480139        5.7946088655      -14.2122206169
 C        -8.4042203584        3.6903571737      -12.9197689351
 C       -14.3526209569        5.1779135571       -9.4288097625
 C       -13.0415257276        4.3099267609       -7.2254681416
 C       -14.6186795765       -2.2622055563      -11.2329123743
 C       -13.9025436155       -1.1391369766       -9.0249589771
 C        -8.4396302614       -4.2980015479      -13.6028177004
 C        -7.8487825065       -5.7039357586      -11.5767633956
 C        -2.7280324013       -0.3168110120      -11.0243485807
 C        -2.3082036356       -1.0399968124      -13.4901853167
 C         1.6752209448       -5.8511587123       -9.4936566757
 C         0.1935372768       -4.9222821314       -7.5171673438
 C         5.5237045615       -5.1781329517       -5.1967555663
 C         6.7343653625       -3.0094853731       -4.9729863948
 C        11.0768395016       -6.4962977887      -10.0010627133
 C        10.0403660969       -8.7207133522      -10.4472033905
 C        10.8783701329      -10.1814356836       -3.1130335773
 C         9.2043487943       -8.4260075892       -2.8644952838
 C        14.6046606907       -6.1524194446       -5.4638918746
 C        14.7549849753       -3.9500490317       -3.9539420438
 H        13.7773808372       -1.8739598942       -5.7682236040
 H        13.3120113097       -2.3042457244       -7.5088322540
 H        15.0017936629       -2.7122443535       -6.8915940031
 H        12.9182229058       -5.1537165689       -1.7964427238
 H        14.0204834539       -6.4183616543       -2.6487267768
 H        10.8688359922       -6.3935858389       -2.3714010721
 H        11.8591910276       -7.4785914529       -1.4050077334
 H         9.9729158122      -10.8054779142       -6.0290351013
 H        11.5893418876       -9.8840708136       -6.1091106268
 H         9.0656606070       -9.3468021612       -7.7634894778
 H        10.3191775739      -10.4541684016       -8.2452357129
 H         8.2471704926       -5.3509256045       -9.9450930312
 H         9.1697577479       -5.0847831349       -8.4635973991
 H         6.7052141153       -6.4728114504       -7.5628834645
 H         6.2239865843       -4.9573819942       -8.5917652306
 H         4.1942989184       -1.6441979642       -6.0276629798
 H         3.6523871533       -3.3013917117       -5.4090550591
 H         2.7475945186       -2.2120227694       -8.1178873086
 H         1.7461274977       -2.5341026179       -6.6504520020
 H        -0.1595332078       -4.8016784169      -11.1887502792
 H         1.2649805521       -4.0311285723      -11.5652423985
 H        -0.1396418948       -2.8592353638      -12.9803473786
 H         0.3351762904       -1.7646478789      -11.6563837380
 H        -5.6210052537       -1.0602882595      -10.7900034528
 H        -4.3103040423       -2.1282251647      -10.0869691814
 H        -6.4901315782       -3.3784131522       -9.6239155545
 H        -5.5286637388       -4.1443300384      -10.9099852471
 H       -10.3572815184       -2.3021883409      -12.5313563646
 H        -9.4828788861       -1.7532960734      -10.9827806477
 H       -11.1580344969       -2.1147908808       -9.5243035617
 H       -11.9939906115       -3.3039982544      -10.5905360143
 H       -15.9039649302        0.3725234455       -9.2384180054
 H       -16.5749071755        1.0028686050      -10.7444640448
 H       -16.0652821352        2.8874249126       -9.5830317244
 H       -14.7296174241        2.8824240240      -10.7331048396
 H       -10.6796174967        4.8446753407       -8.3738576035
 H       -11.3893202612        6.0352584189       -9.5802984889
 H        -9.7636526582        3.5291002516      -10.7272973044
 H        -8.9288829438        4.9425243108      -10.0025495015
 H       -11.8036013252        5.0750853030      -15.2353551434
 H       -11.9825797817        5.8307977285      -13.6340940207
 H       -13.9457101984        5.2380548458      -14.4712635928
 H       -13.7283838856        4.0843984080      -13.1262650775
 H       -17.2705081514        3.7004713713      -17.7417104941
 H       -16.4366090836        5.1682336351      -18.0429335977
 H       -18.6463093369        4.9246323195      -16.0674985409
 H       -18.4062094194        6.1287987637      -17.2424708480
 H       -17.4932310600        5.8467382963      -11.6871888119
 H       -16.2412934098        6.6826281613      -12.6544536368
 H       -16.8486215084        5.1109250737      -13.2334796589
 H       -15.9127869177        8.3648445434      -14.0155210430
 H       -17.4212717670        8.9898238140      -13.1261967015
 H       -17.0487074964        9.5211518146      -14.7750893685
 H       -19.7454042160        7.2879427595      -15.7860233464
 H       -18.5228261814        8.5777954161      -16.5011357115
 H       -19.5765902405        8.8118875336      -15.0857208897
 H       -13.7186042770        3.9023373382      -18.3961275769
 H       -12.4623011769        4.3212369049      -17.0902144230
 H       -13.9840547176        5.3326704135      -17.3100651128
 H       -15.5341400597        1.9021761217      -17.8626771388
 H       -14.6566452575        1.1968380998      -16.5329718007
 H       -13.8464430613        1.8778623568      -17.9068382238
 H        -8.0414211284        5.9056906897      -14.1395704581
 H        -9.4729862392        6.7864038867      -13.9407740835
 H        -9.4105734556        5.3178236766      -15.1387254364
 H        -8.7400075663        2.7709009922      -12.3716674060
 H        -7.6054486293        4.1569561091      -12.3772864222
 H        -8.0228728807        3.2862098992      -13.8452980375
 H       -15.4550822642        4.9244668178       -9.1080382480
 H       -14.0539679346        5.3406854250      -10.4149089400
 H       -14.1583059372        6.1263456119       -8.8610345336
 H       -13.7727042741        4.0740978707       -6.4977002259
 H       -12.8244455241        5.3169596743       -7.1578772059
 H       -12.0627775504        3.8544505484       -7.0300909777
 H       -14.2453884985       -2.4335155923      -12.1993661753
 H       -15.6799242131       -2.0282587514      -11.4424704133
 H       -14.4066135373       -3.0859602484      -10.4754529207
 H       -13.3205128578       -1.9736917236       -8.7382974501
 H       -14.9649175415       -1.3544026768       -8.7228115358
 H       -13.5882896895       -0.2225511615       -8.4973922860
 H        -9.3163892761       -4.8530615569      -13.9923939190
 H        -7.5706318685       -4.6999765918      -14.0591114381
 H        -8.5384213651       -3.3395261100      -13.9549999392
 H        -8.5053062276       -6.5086616074      -11.8283531556
 H        -7.7017410812       -5.7789787359      -10.5718326842
 H        -6.8755779148       -5.8658978978      -11.9145904020
 H        -2.8513121232       -0.7167894685       -9.9777098020
 H        -3.4611076203        0.4810519902      -11.2782123653
 H        -1.6811328965        0.1310800029      -11.0263170999
 H        -1.3259228753       -0.6387906410      -13.6717668696
 H        -3.1106792203       -0.2958184970      -13.8824227738
 H        -2.3324657108       -1.9839482985      -14.0922267662
 H         0.7985150095       -6.1845229093      -10.1596324046
 H         1.9116258912       -6.7059712279       -8.8168428036
 H         2.5268077333       -5.6196965832      -10.1355752222
 H        -0.8155711716       -4.7701204853       -7.9477155541
 H         0.4264854003       -4.2732569751       -6.6903810216
 H         0.3578785299       -6.0058265871       -7.1520831491
 H         5.1612757916       -6.0139597893       -5.7838701083
 H         4.7101090023       -4.7308167022       -4.6287485664
 H         6.2700151468       -5.6418416696       -4.5476319394
 H         7.4494994625       -2.3663373989       -5.3920055679
 H         7.2028637226       -3.4719301972       -4.1386734693
 H         5.9818503488       -2.2410646106       -4.6630125328
 H        10.5823225871       -6.2285006074      -10.9309470431
 H        12.0879592239       -6.9673825578      -10.2250829581
 H        11.1726261862       -5.7047257526       -9.2242347328
 H         9.2797600259       -9.4754078724      -10.1571621863
 H        11.0246581694       -9.1581166029      -10.7063920119
 H         9.7181878075       -8.2176895988      -11.3674521958
 H        10.7263003127      -10.1402573583       -2.0432062880
 H        11.9173907892      -10.3868138379       -3.2717081210
 H        10.2451344563      -10.9288906398       -3.6039399666
 H         8.5003351322       -9.2460000686       -2.6901099116
 H         8.5248337257       -7.6220035168       -3.2494766605
 H         9.5534662164       -8.2484649191       -1.8747410257
 H        15.2064806120       -5.7294221666       -6.2874804196
 H        13.7735600671       -6.7348455959       -5.8211963908
 H        15.3099267512       -6.6245123895       -4.7188058837
 H        15.1198163835       -4.5021764016       -3.1177911543
 H        14.3388157561       -3.0457367308       -3.4721996812
 H        15.6695371433       -3.7393544716       -4.5486154952
 Na       10.5253394343       -5.7758768211       -6.0656749861
 Na      -12.5778607018        1.5154449224      -12.7395388419
