232

 C        13.9564709949       -2.6098402055       -6.4525154760
 C        13.3666586554       -3.9719925913       -6.1821010293
 O        12.5324433193       -4.4588840094       -6.9774016372
 C        13.8679124742       -4.7592881322       -4.8996165254
 C        12.7024345829       -5.1514918953       -3.8017033042
 O        11.5545239759       -4.7746668074       -4.0177643215
 C        12.9729493122       -6.0672119952       -2.5622815229
 C        11.7491606201       -6.8650735650       -2.2920742410
 C        11.6356505347       -7.8616613832       -3.5398279341
 O        12.4362026861       -7.8566751338       -4.4364051642
 C        10.3304875634       -8.8797788686       -3.5995936133
 C         9.9621804146       -8.6903078799       -5.1840373323
 O         9.2788256770       -7.8300748961       -5.6924137345
 C        10.4204272224       -9.8741512659       -6.1457963132
 C        10.1396622422       -9.4563134941       -7.5895120061
 C        10.7215234804       -8.1486770400       -8.0822330976
 O        11.5522208138       -7.4384603897       -7.4905032743
 C        10.0329889967       -7.5829634043       -9.5494830014
 C         8.6014694451       -7.1177682256       -9.0566481005
 O         7.9034719390       -8.0253731078       -8.7062954203
 C         8.2677401015       -5.6296834125       -9.0448816186
 C         7.0758019251       -5.2548730552       -8.1546376182
 C         7.2939927558       -4.6149285883       -6.7606369847
 O         8.4119779647       -4.5216573981       -6.2494690270
 C         6.1343118545       -4.0316240458       -5.9242175802
 C         5.2202873920       -3.1455576122       -6.9412852254
 O         5.6409969884       -2.7959053855       -7.9927923753
 C         3.8519666526       -2.5579134095       -6.3902638967
 C         2.6662380325       -2.7348878015       -7.3786665833
 C         2.5515086357       -4.1643403921       -7.9944573260
 O         3.4437510669       -4.9391018820       -7.7827278252
 C         1.2706238199       -4.6166260565       -8.6645278675
 C         0.8360431770       -3.5966358258       -9.6792001200
 O         0.7552731125       -2.4547548936       -9.2978255644
 C         0.4913720913       -3.8964947605      -11.1191851556
 C        -0.2341278122       -2.6883313454      -11.7909469605
 C        -1.7758528914       -2.6501042268      -11.4779465091
 O        -2.1850160611       -3.3450388724      -10.5789530750
 C        -2.6998816679       -1.5822414459      -12.1541428253
 C        -4.1751755347       -2.1915223941      -12.1871055554
 O        -4.6589589470       -2.7060647221      -13.2232553533
 C        -5.0984226419       -1.9856765122      -10.9129499143
 C        -6.1553254110       -3.1501232337      -10.7725329209
 C        -7.3253152490       -3.1017826842      -11.7198926889
 O        -7.6420780915       -2.0148355363      -12.1783509840
 C        -8.2072012439       -4.2604831362      -12.0505710096
 C        -9.7355130770       -3.9755421229      -11.4409071969
 O       -10.4221122186       -4.8467386435      -10.9432147303
 C       -10.3351972601       -2.5684974844      -11.5997897182
 C       -11.4976174418       -2.3929083365      -10.5549703607
 C       -12.3058667409       -1.1553065558      -11.0565594138
 O       -11.7676508122       -0.3610857203      -11.7746155418
 C       -13.7992723092       -1.0552494558      -10.5735802489
 C       -14.5551244907        0.2559756502      -11.0845082244
 O       -14.4912191458        0.6950648555      -12.2339451044
 C       -15.4710752946        1.0099841664      -10.1225125167
 C       -15.0792717875        2.4961377576      -10.0053905083
 C       -13.8904431773        2.6543056717       -8.8743656960
 O       -13.4802426247        1.7102153360       -8.2262514071
 C       -13.4015183075        4.1294217024       -8.6717146915
 C       -12.1544748673        3.9669764786       -9.6504937523
 O       -12.1319526658        3.1701047574      -10.5815541709
 C       -10.9681129115        4.9310089399       -9.4128177641
 C        -9.8597472662        4.6127891891      -10.4389736387
 C       -10.0994242793        5.3505606369      -11.7913590196
 O       -10.6092899692        6.4518522114      -11.9058862494
 C        -9.5695023177        4.5961209999      -13.0727168549
 C       -10.8271208868        3.9357066991      -13.6364790160
 O       -10.7557241845        2.7519999539      -13.7912374733
 C       -11.8775180689        4.8981913961      -14.2014482176
 C       -13.3195809051        4.2690726760      -14.1982083657
 C       -13.6755777368        3.0853037234      -15.1564991491
 O       -13.5040332977        1.9160982554      -14.8157465630
 C       -14.5096630962        3.3416362624      -16.4765289876
 C       -15.9160915424        3.7945767254      -16.0087684032
 O       -16.3315159074        3.8440653397      -14.8672388440
 C       -16.7992471493        4.6253594281      -17.0473712464
 C       -17.7060985235        5.5597701763      -16.3333444474
 C       -17.0235920954        6.5538583423      -15.5470017063
 O       -15.7921114937        6.5326598219      -15.4553656275
 C       -17.8369412608        7.5585533383      -14.6870293529
 C       -18.3687250781        6.6867250615      -13.4185900733
 O       -19.5526224911        6.4806889824      -13.2935781432
 C       -17.1559644902        5.8697615317      -12.7060993889
 C       -16.9867792320        8.7838019004      -14.2657887662
 C       -19.1180550438        7.9296865370      -15.4028011963
 C       -13.7717198630        4.3823744705      -17.4005758569
 C       -14.6137082368        2.0498654906      -17.2579810646
 C        -9.2021294049        5.6925802237      -14.1722935001
 C        -8.3188448614        3.7755279326      -12.8680367965
 C       -14.4160594190        5.1350834514       -9.3449519764
 C       -13.0590149718        4.4160042169       -7.2646669345
 C       -14.5986596767       -2.3743080159      -11.1406555634
 C       -13.7888616687       -1.2569039948       -9.0532785277
 C        -8.3309817353       -4.3439979554      -13.5827330297
 C        -7.8068407829       -5.6338492426      -11.5571558032
 C        -2.6193115266       -0.2917821088      -11.1205934455
 C        -2.3491075511       -1.0636083214      -13.5125586920
 C         1.4738275801       -6.0076046348       -9.3742461891
 C         0.1693629358       -4.9043714065       -7.5676149428
 C         5.3725945837       -5.2730686316       -5.2633668680
 C         6.7067746473       -3.1424529884       -4.8429952010
 C        10.9766484595       -6.4608730301      -10.0108492280
 C         9.8407526873       -8.6647507309      -10.6631846876
 C        11.0103915862      -10.2840656035       -3.1232935445
 C         9.0943178033       -8.6038823197       -2.7710222036
 C        14.5924317674       -6.0978641683       -5.2976997039
 C        14.8630903614       -3.9291733070       -4.0902291998
 H        13.4294678502       -1.9709859496       -5.7229067814
 H        13.6440207004       -2.3597522238       -7.4601119031
 H        14.9796975345       -2.5764162294       -6.3134574482
 H        13.0972676744       -5.4699186517       -1.6820748320
 H        13.8020883433       -6.6851459380       -2.7697808105
 H        10.8274754860       -6.3538028878       -2.1518760285
 H        11.8801213135       -7.5082641494       -1.3852249068
 H         9.8679923911      -10.7949866316       -5.8861504187
 H        11.5016973985       -9.8873809563       -5.9771464760
 H         9.0243672701       -9.4295741318       -7.8301602770
 H        10.4864057576      -10.2268316496       -8.2635119869
 H         8.0257607386       -5.4176686637      -10.0728169902
 H         9.2059372198       -5.1078539697       -8.9260501550
 H         6.6108147325       -6.2048776858       -7.7690340309
 H         6.4252539005       -4.5807808964       -8.7364492124
 H         4.2255196501       -1.5341181107       -6.2167212676
 H         3.6566677700       -3.0364384693       -5.4238655117
 H         2.7921649654       -2.0076422811       -8.2011413165
 H         1.7552443062       -2.4852292456       -6.8160370072
 H        -0.1779496830       -4.7326848369      -11.1572710185
 H         1.3142041388       -4.2867655072      -11.7018283196
 H         0.0568132995       -2.7178856640      -12.8505614632
 H         0.1517515604       -1.6766019275      -11.4432782105
 H        -5.7620159108       -1.1087577252      -11.2561827211
 H        -4.5199903653       -1.7895033074       -9.9597884641
 H        -6.6713666420       -2.9614860247       -9.7438429343
 H        -5.6467494673       -4.0850517632      -10.6190128397
 H       -10.5806912094       -2.5075808641      -12.6873893102
 H        -9.5415535907       -1.8441579905      -11.3695418260
 H       -11.1688824779       -2.3429932468       -9.4806740782
 H       -12.0245709115       -3.3963366648      -10.7146322309
 H       -15.5738228664        0.4687173053       -9.1900153233
 H       -16.4702310604        0.9480634194      -10.5598979035
 H       -15.9808310744        2.9756124162       -9.6240740868
 H       -14.7243450285        2.9109306751      -10.8974775484
 H       -10.7183821835        4.9831376986       -8.4225504843
 H       -11.3433072889        5.9711510565       -9.6597384948
 H        -9.6116055383        3.5484467216      -10.6071191434
 H        -9.0036965666        5.0980332460      -10.0685756883
 H       -11.5652095423        5.2012662075      -15.1862261942
 H       -11.9258917328        5.7939826951      -13.5783997813
 H       -13.9950944500        5.1213179551      -14.4111687995
 H       -13.4469252407        3.8842012222      -13.2213231470
 H       -17.3239737678        3.9093312346      -17.7116885772
 H       -16.1342546303        5.1736812696      -17.7373721865
 H       -18.1498616466        4.8563143293      -15.6011111917
 H       -18.5896221254        5.8672178519      -16.8806303694
 H       -17.2516641285        5.6104236025      -11.6295959670
 H       -16.3208847995        6.5846087027      -12.7999358384
 H       -16.9760451854        5.0452679858      -13.4281594562
 H       -15.9546659308        8.6396953956      -14.1336484009
 H       -17.5304591559        9.1704775407      -13.3389001163
 H       -17.1577544196        9.5901908662      -14.9600855172
 H       -19.7885756075        7.1831614596      -15.2164683310
 H       -18.8012248689        8.0900978348      -16.3565284788
 H       -19.5918016220        8.8397607430      -15.0172693708
 H       -14.2861630940        4.4493332920      -18.3623876818
 H       -12.7082016413        4.0404009480      -17.4967960567
 H       -13.7622826676        5.3931433125      -16.9406997664
 H       -15.5118861819        2.0373477253      -17.8776687750
 H       -14.6822367458        1.1045806476      -16.6583525011
 H       -13.7947876541        1.9078204505      -17.9706880941
 H        -8.1686760041        5.7821672551      -14.1760550327
 H        -9.5281982766        6.7220282346      -13.8447717966
 H        -9.4830105640        5.2376412891      -15.1422722089
 H        -8.4768852814        2.8371736350      -12.3179552603
 H        -7.4801551801        4.3774736397      -12.3989927334
 H        -8.0094384972        3.4333534527      -13.8512786727
 H       -15.4620746794        4.8776238131       -8.9820016635
 H       -14.1261661359        5.1428448766      -10.4076329178
 H       -14.2756423425        6.1729357273       -8.8934515049
 H       -13.9775030464        4.4537844933       -6.6802562560
 H       -12.5127733543        5.3978147645       -7.1738672985
 H       -12.3965503670        3.7080478698       -6.9072649655
 H       -14.6381316988       -2.3838638460      -12.2718660358
 H       -15.6566886355       -2.2326043804      -10.8241836011
 H       -14.1655995245       -3.1817302190      -10.6513344198
 H       -13.2686412701       -2.1861705372       -8.7861520905
 H       -14.8650463559       -1.3711723788       -8.7893767745
 H       -13.3929965487       -0.4200802290       -8.5051951308
 H        -9.1536156985       -4.8325191473      -14.0230209280
 H        -7.4038313431       -4.8435809504      -13.8555073020
 H        -8.1776580211       -3.3775504923      -14.0590719649
 H        -8.5727817911       -6.3541639469      -11.6461886058
 H        -7.3711671237       -5.7098482663      -10.5609107242
 H        -6.9413402419       -5.9257795368      -12.0427085101
 H        -2.7601660218       -0.5831888299      -10.0230480000
 H        -3.3849845207        0.4293610174      -11.4971002723
 H        -1.6676587682        0.2196514219      -11.1860717513
 H        -1.3899503130       -0.3982809315      -13.5113230973
 H        -3.1540399036       -0.4998929783      -13.9462363134
 H        -2.1257679522       -1.8797603380      -14.1123949128
 H         0.5019709937       -6.5177259560       -9.5230568875
 H         2.1075538139       -6.6254935777       -8.7447932154
 H         1.9844731508       -5.8851520661      -10.3326114772
 H        -0.5895052039       -5.3152737968       -8.2319690213
 H        -0.2193733639       -3.9334235205       -7.1206877797
 H         0.5216474602       -5.5464490183       -6.8101669777
 H         5.1525181095       -6.0307868090       -6.0584721430
 H         4.4698683756       -4.9959551572       -4.8222307028
 H         6.0361450144       -5.8400839032       -4.6535870032
 H         7.6805237946       -2.6331624475       -5.1311175502
 H         6.9037508740       -3.6699137962       -3.9539774703
 H         6.0904728417       -2.2372470193       -4.6306245307
 H        10.4625482302       -6.1445691492      -10.9264778157
 H        11.9890307997       -6.8575236792      -10.3135717527
 H        11.0461304557       -5.7461655302       -9.2063899128
 H         9.2913745642       -9.5261340314      -10.2356008036
 H        10.8116533341       -8.9141849257      -11.0068601567
 H         9.2684801564       -8.3109666479      -11.5396581000
 H        11.0931537715      -10.2333348051       -2.0964682448
 H        12.0304266747      -10.3803875341       -3.4673562702
 H        10.3876886360      -11.1177717149       -3.4683743037
 H         8.3450372494       -9.3784225992       -2.6125242624
 H         8.5309565978       -7.8408451895       -3.2827547201
 H         9.3483042635       -8.2392223694       -1.7409747364
 H        15.5503841126       -5.8401036083       -5.7106074684
 H        13.8430932466       -6.6265712780       -5.9191154040
 H        14.7767572711       -6.6272533988       -4.3594704331
 H        15.4327803102       -4.4181955181       -3.2564108386
 H        14.4939101702       -3.0346758672       -3.6052293182
 H        15.6252932330       -3.7487589867       -4.8468146854
 Na       10.4297630233       -5.6661465036       -6.2204882019
 Na      -12.5111835443        1.5379632307      -12.7433558562
