232

 C        13.9283957671       -2.6269319108       -6.3082866001
 C        13.3518407979       -4.0116541934       -6.0162269180
 O        12.4746309433       -4.5233314346       -6.7197130642
 C        13.9568438424       -4.7615047092       -4.7809813661
 C        12.6873025198       -5.1351741200       -3.8503621621
 O        11.5739116094       -4.6994668240       -4.1006189664
 C        12.9929069494       -6.0403165526       -2.6542724048
 C        11.7042567492       -6.9359974936       -2.3146569638
 C        11.4064468122       -7.8158657066       -3.5459159394
 O        12.1799056043       -7.6799731950       -4.4758588275
 C        10.3081574307       -8.8651523210       -3.6734319225
 C         9.8979202141       -8.8331079835       -5.1276859978
 O         9.3566170311       -7.7571614788       -5.4148706112
 C        10.4672813258       -9.8451155743       -6.1525999154
 C        10.2102886577       -9.5127594351       -7.6400152551
 C        10.6491423325       -8.1223137689       -8.2174446435
 O        11.4383671450       -7.4442823993       -7.5815484048
 C        10.0568342456       -7.5743496096       -9.5014462400
 C         8.6142050596       -7.1225263065       -9.0700445105
 O         7.7705326467       -7.9410703623       -8.7306027050
 C         8.2479708738       -5.5816568712       -9.0767071029
 C         7.0727348117       -5.2264331097       -8.1799515086
 C         7.4160661344       -4.6223865934       -6.7636790382
 O         8.5134714244       -4.4508267025       -6.3219827566
 C         6.1231581062       -4.0639420434       -5.9779728786
 C         5.2728734258       -3.0705449520       -6.9137757216
 O         5.6644844782       -2.8351275256       -8.0365299782
 C         3.8093436100       -2.5111271033       -6.4330472277
 C         2.7549769904       -2.6660355224       -7.4900340222
 C         2.5518912866       -4.1950680546       -7.8983087738
 O         3.5213504093       -4.9332767527       -7.7600148575
 C         1.1703448052       -4.8067457314       -8.7094290360
 C         0.6652379506       -3.6185615139       -9.6945137359
 O         0.5679972575       -2.5531725992       -9.2165856092
 C         0.4588368267       -3.9112342604      -11.2217420268
 C        -0.3037070680       -2.6943317893      -11.8181021538
 C        -1.7620765707       -2.6486953993      -11.4280541802
 O        -2.1802867417       -3.3875365454      -10.5338062267
 C        -2.7000266490       -1.6654724041      -12.2388546538
 C        -4.2041928786       -2.2013177611      -12.2384239093
 O        -4.6070967979       -2.6941181645      -13.2398147724
 C        -5.1668689152       -1.9983507630      -10.9838949939
 C        -6.1706658731       -3.1046521366      -10.7488016315
 C        -7.3542154670       -3.0252379003      -11.7342318431
 O        -7.6294918043       -1.9378728164      -12.2129674121
 C        -8.2293307174       -4.2948184020      -12.0708799496
 C        -9.6782365043       -4.0363586667      -11.5597255382
 O       -10.2901235067       -4.9276236413      -10.9265478026
 C       -10.3747683202       -2.6705715798      -11.7816931929
 C       -11.5213488157       -2.3665584526      -10.6839671449
 C       -12.3465461065       -1.1761710475      -11.1005896358
 O       -11.7720220759       -0.2901708972      -11.7223345133
 C       -13.8167581185       -1.1675350278      -10.5570031608
 C       -14.5184534711        0.1521767580      -10.9742494791
 O       -14.5190933801        0.5111274470      -12.1942845799
 C       -15.3587467363        0.9689417343       -9.9894702818
 C       -14.9680984166        2.4327056332       -9.9531195541
 C       -13.9088012323        2.6617711735       -8.8697060698
 O       -13.4297383479        1.8042340134       -8.2123426518
 C       -13.3276687892        4.1050186600       -8.7714659272
 C       -12.1219597956        4.0402912590       -9.7302729554
 O       -12.0366256712        3.2154944572      -10.6163578054
 C       -10.8924734001        5.0031955355       -9.4443041120
 C        -9.7394669501        4.7556576405      -10.4053230869
 C        -9.9140545030        5.4388109785      -11.7714159988
 O       -10.5113663286        6.5427151739      -11.8269286437
 C        -9.4455704519        4.6612498424      -13.1529115493
 C       -10.7041063496        3.8847953107      -13.7437836577
 O       -10.7341303582        2.6571110926      -13.6622066905
 C       -11.8716585800        4.6865144363      -14.3050986429
 C       -13.3923478016        4.1375014468      -14.2770466383
 C       -13.6728507530        2.9918143246      -15.1881463141
 O       -13.5941401090        1.8495430037      -14.8454907266
 C       -14.5137499578        3.3679824692      -16.4630018924
 C       -15.8610288592        3.9087800088      -15.8569820282
 O       -16.1597961305        3.5474778749      -14.7833039165
 C       -16.8010264234        4.5428538456      -16.8864785994
 C       -17.7625379188        5.4856239234      -16.1927276079
 C       -16.9378719048        6.6149613038      -15.4525877001
 O       -15.7013765348        6.5772974271      -15.3469107342
 C       -17.9243318881        7.5654269800      -14.6990963895
 C       -18.3201646948        6.6321881615      -13.4196510564
 O       -19.4835085542        6.4793861964      -13.1562904976
 C       -17.3523571561        5.8587206935      -12.6382348041
 C       -17.0709427478        8.8815575168      -14.3578187892
 C       -19.3033403407        7.9768364370      -15.3478998844
 C       -13.9213854832        4.5161125785      -17.3096025689
 C       -14.6756347178        1.9876982008      -17.2921195038
 C        -9.1001901957        5.8496314275      -14.1659612092
 C        -8.3178258148        3.7649294803      -12.7835808673
 C       -14.3623563355        5.1874442461       -9.2059486884
 C       -13.0658165409        4.4920536111       -7.3228147606
 C       -14.5811369247       -2.3238616228      -11.1827418381
 C       -13.7491048880       -1.3270464086       -9.0320393065
 C        -8.3491291714       -4.3881514495      -13.6285447800
 C        -7.7498810109       -5.6376763884      -11.3960220218
 C        -2.5953899994       -0.3945471582      -11.2861803990
 C        -2.3120464346       -1.1750792199      -13.5867220975
 C         1.4253564223       -6.2875724142       -9.2642731870
 C         0.0990524475       -4.7858879027       -7.6433504890
 C         5.2089474153       -5.2232826105       -5.5058366494
 C         6.5359311435       -3.2301346238       -4.7230258249
 C        10.9124483027       -6.3449858702      -10.0818084317
 C         9.7577032675       -8.5859016732      -10.6607559891
 C        10.9788199779      -10.2063698273       -3.3757865011
 C         9.1536410591       -8.6626891637       -2.7336799689
 C        14.5604318254       -6.0538666920       -5.2772001047
 C        15.0445552902       -3.8792012790       -4.0904316134
 H        13.3839899315       -1.9697547529       -5.7467889551
 H        13.8111653497       -2.4375936827       -7.3384699623
 H        14.9595238434       -2.6214814580       -6.0486288988
 H        12.9509116406       -5.3791260301       -1.7768081035
 H        13.8926135307       -6.5150365551       -2.7681463920
 H        10.8141673349       -6.3557890192       -2.0551528686
 H        11.8266764183       -7.5965472898       -1.4674919556
 H         9.9280782159      -10.7527741715       -5.9176154981
 H        11.5254891912       -9.8225501448       -5.8050427961
 H         9.1571497835       -9.8114503195       -7.8268981237
 H        10.7286909608      -10.1901375864       -8.2686776649
 H         7.9883860729       -5.2573957442      -10.0897824347
 H         9.0954264043       -5.0312483524       -8.8856667883
 H         6.2501598776       -5.8602238113       -8.1237078343
 H         6.8528789979       -4.2168581456       -8.6529873982
 H         4.0606639926       -1.4974563778       -6.2216779475
 H         3.5790785475       -2.9940269655       -5.5006901678
 H         3.0324296730       -2.0214609126       -8.3738268201
 H         1.8267929329       -2.3224043124       -7.0814010636
 H        -0.1159016677       -4.8002965046      -11.3804882233
 H         1.4357155948       -4.2432737464      -11.7375160682
 H        -0.1345562844       -2.6351821671      -12.8882702625
 H         0.0971919468       -1.7605646695      -11.4716429277
 H        -5.7756031751       -1.0961256724      -11.2101098574
 H        -4.5703942540       -1.8926637190      -10.0391591919
 H        -6.3780366384       -3.0628189443       -9.7335154657
 H        -5.6127012921       -4.0499814169      -10.9279904762
 H       -10.6732711811       -2.7501815250      -12.7954586418
 H        -9.6654572834       -1.9192289395      -11.7043460271
 H       -11.1648797868       -2.0531001019       -9.7035032539
 H       -12.0232167564       -3.3767663289      -10.5568975601
 H       -15.3880354508        0.4185793457       -9.1054869501
 H       -16.4160137914        0.9327784735      -10.3196800209
 H       -15.8767480443        3.0727457144       -9.7853894953
 H       -14.4119749156        2.7043364630      -10.8458064127
 H       -10.6169916295        4.6699351866       -8.4518086655
 H       -11.1651539140        5.9883786885       -9.2274253309
 H        -9.7753240572        3.7304798420      -10.6450044938
 H        -8.7903145672        5.0175231881       -9.9246469398
 H       -11.6041797666        5.0205280910      -15.2807444531
 H       -11.8750037446        5.5837873316      -13.6708786645
 H       -14.0140594524        5.0004300918      -14.5101299864
 H       -13.5607401951        3.7302268458      -13.2619905040
 H       -17.0866555726        3.7256846688      -17.5701442000
 H       -16.2138403869        5.2297302728      -17.5397049413
 H       -18.4897239730        4.9008992657      -15.6159345979
 H       -18.3997907597        5.9746981489      -16.9281622805
 H       -17.8744647082        5.7956156449      -11.6581714691
 H       -16.4607727342        6.4411398802      -12.4708477546
 H       -17.1891687892        4.8891294194      -13.1997261345
 H       -16.0599718122        8.5564982955      -14.1352332857
 H       -17.4731671960        9.5236237168      -13.6373278301
 H       -17.0106674131        9.5224832302      -15.2341912132
 H       -20.0100222906        7.1924818730      -15.1638755774
 H       -18.9514680573        8.2554603432      -16.3111065239
 H       -19.7001253717        8.8415429105      -14.8637008199
 H       -14.6421225748        4.9984801985      -17.9304101209
 H       -13.0819657676        4.1506027898      -17.8213013228
 H       -13.5539052740        5.3048693159      -16.6872744982
 H       -15.4049579315        2.1674492509      -18.0846315486
 H       -15.0764409093        1.0980894945      -16.7561921604
 H       -13.7319247970        1.6074002381      -17.8309088367
 H        -8.1133522168        6.2951779019      -13.9787323283
 H        -9.8026787344        6.6572559425      -13.9887573569
 H        -9.0483890149        5.3522546056      -15.1435162575
 H        -8.7598159489        2.9880216668      -12.1787831402
 H        -7.4160555695        4.1888299217      -12.2898034548
 H        -8.0201848728        3.2028775656      -13.7074563063
 H       -15.0456109794        5.2426346475       -8.4868954432
 H       -14.6055591059        5.1087952092      -10.3516534799
 H       -13.8539507751        6.1335222035       -9.0264103674
 H       -14.0649675779        4.8029403929       -6.9722077133
 H       -12.3168780541        5.3210387987       -7.1698935742
 H       -12.7436337745        3.6414187996       -6.6995389106
 H       -14.9788699681       -1.9806511206      -12.1594467385
 H       -15.4353628206       -2.4605408271      -10.5073996024
 H       -14.0208591178       -3.2288998219      -11.1681355845
 H       -13.2379185457       -2.2764985526       -8.7014084375
 H       -14.7079356538       -1.2714423618       -8.5973821726
 H       -13.1488618162       -0.4772721711       -8.7068119071
 H        -9.1248163093       -5.0205780406      -14.0556337588
 H        -7.3416534832       -4.7069724734      -13.9645509717
 H        -8.3549296499       -3.3382566596      -14.1042412661
 H        -8.5028446920       -6.4113313357      -11.3622942309
 H        -7.2455278878       -5.5633438985      -10.3960106944
 H        -6.7974233243       -6.0250309375      -11.8571830368
 H        -2.7183374277       -0.6299647141      -10.2529532103
 H        -3.3084934186        0.3310180377      -11.6782473086
 H        -1.6441556822        0.0878065043      -11.4010661722
 H        -1.4294141178       -0.5633174183      -13.4256467278
 H        -3.0181068713       -0.6155727996      -14.0943786729
 H        -2.0394151535       -2.0199283223      -14.2654036520
 H         0.5943851780       -6.8933421173       -9.1402275731
 H         2.2741568467       -6.6641869562       -8.7107210762
 H         1.7707657107       -6.2650261680      -10.3004641611
 H        -0.6171742448       -5.5689428594       -7.8225815218
 H        -0.4654514268       -3.8288972818       -7.7768849928
 H         0.5386596442       -4.7460780090       -6.6966061472
 H         4.9071559306       -5.9120463633       -6.2801036101
 H         4.2869767476       -4.9050764024       -5.0049006964
 H         5.8446239973       -5.8749579718       -4.9433004198
 H         7.5293427419       -2.7099031184       -4.8671972381
 H         6.7056494293       -3.9574593194       -3.8477898444
 H         5.9068388748       -2.4266021452       -4.4022562201
 H        10.2720444025       -5.9530128131      -10.8976296385
 H        11.7619780494       -6.7057588329      -10.5772274812
 H        11.1751553057       -5.7143358556       -9.2498346964
 H         9.2203616461       -9.4124544960      -10.2531993269
 H        10.6707635961       -8.8255443599      -11.1888395023
 H         9.0549876445       -8.1615773388      -11.3726880282
 H        11.4194070496      -10.1425450505       -2.3707123298
 H        11.8565254867      -10.3857950931       -3.9856658802
 H        10.2481639243      -10.9609664424       -3.4667988035
 H         8.4084494830       -9.4526740502       -2.7662191007
 H         8.5727234129       -7.8500604526       -3.1378871661
 H         9.3621100063       -8.4344501539       -1.6656620790
 H        15.5772085612       -5.7880498281       -5.4681146792
 H        13.9198484211       -6.4301500916       -6.0687458835
 H        14.5584426922       -6.7467379188       -4.4859028153
 H        15.5246125617       -4.1610747442       -3.1285165240
 H        14.5426901929       -2.9324062319       -3.8358473206
 H        15.8621073069       -3.8003870334       -4.8010968341
 Na       10.4549938476       -5.5364933092       -6.3560285134
 Na      -12.3894592018        1.6315273441      -12.7444363640
