232

 C       -18.2724914168       -6.4369207671       -2.5335831823
 C       -18.1589580318       -7.9503866871       -2.2610553171
 O       -17.3057930853       -8.6331968288       -2.8755215184
 C       -19.1879770027       -8.6783856757       -1.3643778553
 C       -18.4377977464       -9.5125280365       -0.3205452712
 O       -18.0226832485      -10.6840308089       -0.6225262506
 C       -18.2014229670       -9.0197516309        1.1263781432
 C       -16.7205585642       -9.0176804815        1.4937133903
 C       -15.9108130560       -8.2119334115        0.4774645415
 O       -16.4621761973       -7.4701424850       -0.2698676551
 C       -14.3010508344       -8.4737023204        0.4641952188
 C       -14.1259754027       -9.5276574867       -0.6894867803
 O       -14.6152689321      -10.6311550982       -0.5554196801
 C       -13.5447775561       -9.0397471634       -2.0622854284
 C       -12.8659140622      -10.2174016445       -2.8502394799
 C       -13.6215338421      -10.5164600642       -4.1241078276
 O       -14.8539315768      -10.5203974218       -4.1943984120
 C       -12.8712421896      -10.8025962149       -5.4407613674
 C       -12.7833139070       -9.3991042597       -6.0136192134
 O       -12.3593529648       -8.4736863793       -5.3202851316
 C       -12.9017077890       -9.2127629337       -7.5434584560
 C       -12.5637015210       -7.8691935750       -7.9256245604
 C       -13.3447509341       -7.3102437484       -9.0934512192
 O       -14.3710389320       -7.8892680715       -9.3559129806
 C       -13.1107677088       -5.9797843396       -9.8617832478
 C       -11.6846993950       -5.3266731792       -9.4511944262
 O       -10.7388486047       -5.9922258133       -9.1038809450
 C       -11.6476912097       -3.7768601193       -9.2325613138
 C       -10.6279164411       -3.0911909783      -10.2277258243
 C       -10.7317579690       -1.5920104959      -10.2345147453
 O       -11.7338789721       -0.8848160757      -10.3647229796
 C        -9.3610525748       -0.9094872228       -9.9932540982
 C        -8.2176739976       -1.5124540304      -10.8658349021
 O        -8.4743581244       -2.2915707674      -11.7630558768
 C        -6.7282212415       -1.0367698033      -10.7542218144
 C        -5.8823486143       -1.5147661699      -11.8735527355
 C        -4.7168982475       -0.4791233761      -12.1098790490
 O        -4.8534335179        0.6959917348      -11.7534364448
 C        -3.5082578139       -0.9351261893      -13.0173129298
 C        -2.2351913271       -1.1566458920      -12.0140104734
 O        -1.3424715511       -1.9596629052      -12.3475552014
 C        -2.0540572633       -0.3074907155      -10.7228050707
 C        -0.7654014320       -0.9296239305       -9.9982076583
 C        -0.0802828730       -0.0032466980       -8.9982747131
 O        -0.3744133627        1.1708949953       -8.9915267708
 C         0.9108129103       -0.5538505183       -7.9272780193
 C         2.2015113797        0.0295781039       -8.5441862559
 O         2.8035933049       -0.6158058429       -9.3115237629
 C         2.5299499573        1.5090287718       -8.3581968363
 C         3.7056006995        1.7876449587       -9.2568233281
 C         4.1736051579        3.3083551819       -9.0923481788
 O         3.5442363535        4.0695070104       -8.4272175266
 C         5.3926107346        3.7838117329       -9.9490096624
 C         4.8271353837        4.2320667532      -11.3210832561
 O         5.0612553836        3.6333269818      -12.4000950120
 C         3.9378298206        5.4657725736      -11.4304056312
 C         4.5274377514        6.7999643578      -11.9624584093
 C         4.5240843737        6.9947241492      -13.5227881895
 O         3.8411611890        6.3390928955      -14.3481061132
 C         5.2458186911        8.2642274856      -14.1196462433
 C         5.9619468467        7.7831802827      -15.4630529382
 O         5.4238174670        8.1399371416      -16.4860674659
 C         7.3115130264        7.0219589630      -15.2846960066
 C         7.9814025617        6.4393105393      -16.5852072301
 C         7.2855719697        5.1792794668      -17.1326978509
 O         6.3501592834        4.6607259951      -16.5282551486
 C         7.8058944182        4.5773215132      -18.4620671208
 C         9.3053356005        4.0839310669      -18.1452599450
 O         9.7722257356        4.2054365217      -17.0200425098
 C        10.1085230994        3.7122485882      -19.4688236284
 C        11.1326574166        2.6588983236      -19.0478755922
 C        10.5237605088        1.2904921367      -18.6708140893
 O         9.4874970590        0.9722080197      -19.1947772442
 C        11.2227506996        0.3720820816      -17.5556724265
 C        10.5375912212        0.6830813103      -16.0026638569
 O        11.2363006177        0.4445408139      -15.0695525432
 C         9.0768515467        0.9988832891      -16.0946505711
 C         8.1709746669        0.4728559630      -14.8743217506
 C         6.7819558830        1.2239122321      -14.7586219960
 O         6.6710992013        2.4304590837      -15.0090342770
 C         5.4769276495        0.4827293915      -14.5755488197
 C         4.3221261066        1.1396431140      -15.3737869279
 O         4.0971746234        2.3082374310      -15.1851716843
 C         3.3648651179        0.2974353271      -16.1429983015
 C         5.7324116682       -1.1050282378      -14.8854278275
 C         4.9026056051        0.4489667319      -13.1463280463
 C        10.8574336089       -1.1997630911      -18.0313426844
 C        12.7438537442        0.5080896001      -17.5696371226
 C         6.8253386616        3.4568789187      -18.9236641623
 C         7.7711733858        5.7435273550      -19.6574287716
 C         4.2385363161        9.4201882387      -14.3691539063
 C         6.4817435368        8.8425073990      -13.2028968818
 C         6.1940289752        4.9939998587       -9.2636287825
 C         6.3491319648        2.5824544675      -10.3066197995
 C         0.7542301580       -0.0352025724       -6.5324610648
 C         0.9047727866       -2.0407599343       -7.9422030972
 C        -3.8846959912       -2.1540747297      -13.8990458520
 C        -2.8949856510        0.2280320033      -13.8474804371
 C        -9.4966511003        0.6181328304      -10.4318074023
 C        -8.9022202746       -1.0778173542       -8.4933339371
 C       -13.0932080780       -6.3142480051      -11.4160858140
 C       -14.3382731476       -5.1270930448       -9.3992918614
 C       -11.3620414450      -11.1964972111       -5.2985397808
 C       -13.5928306126      -11.8424559879       -6.2508875673
 C       -13.7795464540       -6.9811865592        0.2522222679
 C       -13.7978993329       -9.0337751487        1.8003398203
 C       -20.1502010791       -7.7371018783       -0.6927096723
 C       -20.0204214739       -9.6718756403       -2.3297165916
 H       -19.2189972035       -6.1211024236       -2.9067508200
 H       -17.4687100017       -6.0871123026       -3.2586290846
 H       -18.0969283449       -6.0167470909       -1.5223421802
 H       -18.7098557148       -9.5824435139        1.8989738890
 H       -18.4381821447       -7.9740563878        1.1941290937
 H       -16.3502506484      -10.0447767281        1.3749786326
 H       -16.4792017144       -8.6261744838        2.4784883311
 H       -12.7167920368       -8.3410846635       -1.8213321525
 H       -14.3870547127       -8.5343050313       -2.5866304519
 H       -12.8404614629      -11.0963919595       -2.2953649324
 H       -11.8243957753       -9.9547239613       -3.0706925669
 H       -13.9016483742       -9.3264278673       -7.9582911849
 H       -12.2199327510       -9.9843516992       -8.0090256215
 H       -11.4677252333       -7.7494224351       -8.1840172385
 H       -12.6770465223       -7.1821717701       -7.0516565038
 H       -11.5091900913       -3.4427443833       -8.1550501662
 H       -12.6434406205       -3.3037012306       -9.3477315209
 H       -10.7588836191       -3.4235179379      -11.2363892283
 H        -9.6947048430       -3.5641791387       -9.9739849386
 H        -6.3139116887       -1.3474422674       -9.8385823769
 H        -6.5572396692        0.0884315507      -10.8069155068
 H        -6.4092119781       -1.5158744839      -12.8337159001
 H        -5.5568837349       -2.5944882566      -11.6441452678
 H        -2.8243410852       -0.2982298467       -9.9268112139
 H        -1.8364033480        0.7682284657      -10.7977658369
 H         0.0844181672       -1.0304156159      -10.6866224685
 H        -0.9741552830       -1.7734817836       -9.4648387939
 H         2.8473819286        1.8471631626       -7.3848349297
 H         1.6359567122        2.0924759898       -8.4129054973
 H         3.5308171004        1.7226591783      -10.3875101849
 H         4.4337832142        0.9444761191       -9.0521232768
 H         3.4340241645        5.8428940689      -10.5728516796
 H         3.1337330250        5.2466281755      -12.0541989005
 H         5.5547049510        6.8061106768      -11.5745480710
 H         4.1681069522        7.6694352749      -11.4267201641
 H         7.1404089561        6.1605930228      -14.5752161506
 H         7.9839496138        7.6948694387      -14.7558266931
 H         9.0458561375        6.0591743564      -16.4092013389
 H         8.0395998302        7.1859260760      -17.3293013651
 H        10.6065888321        4.7017926377      -19.8279614012
 H         9.3770764550        3.2453820037      -20.0814271139
 H        11.6910311328        3.0847085963      -18.2098690449
 H        11.9912959777        2.5086823590      -19.7909523405
 H         8.6308758511        0.7243116069      -16.9883046485
 H         9.0323517414        2.1096035632      -16.1065359951
 H         8.8268855357        0.7966490169      -14.1203173459
 H         7.9971393982       -0.6465273689      -14.8810024882
 H         3.8009003148       -0.6206304914      -16.4507890929
 H         2.8394665282        0.8895462042      -16.9525619176
 H         2.6726350032        0.1224494391      -15.3409577006
 H         4.8232622442       -1.6859432157      -14.5230909296
 H         6.5445037654       -1.2621780381      -14.1679094840
 H         5.9423502679       -1.3621988254      -15.9488308144
 H         4.0879745760       -0.2632156639      -13.1947569689
 H         4.5680842802        1.4996255335      -12.8276579154
 H         5.7211519411        0.0401863794      -12.4881157638
 H        11.6228462036       -1.8457417379      -17.5789137098
 H        10.9700896940       -1.1900238808      -19.1267709449
 H         9.8552588055       -1.3788147425      -17.6986069356
 H        13.0842545036        0.3022276295      -18.5780688874
 H        13.1503419183       -0.1481874629      -16.8197238723
 H        13.0728040807        1.5424588829      -17.5057052586
 H         5.8352319272        3.9529056469      -19.0848310620
 H         6.6590368685        2.7151157420      -18.1805015959
 H         7.2536897774        2.9681848400      -19.7687711755
 H         8.7034679377        6.3361714754      -19.7910715311
 H         7.0123947307        6.4878388488      -19.3396781347
 H         7.5054478041        5.3319488903      -20.6734272462
 H         4.3054315857       10.0696246887      -15.2198774301
 H         4.2413084391       10.0218125203      -13.3858991736
 H         3.2939537974        8.9165888722      -14.4173978305
 H         6.8196293730        9.6501955788      -13.7305911587
 H         7.3127867640        8.2247655350      -13.0104565917
 H         6.0835247521        9.1917560845      -12.2570262732
 H         6.6485175201        4.4468460242       -8.4327223819
 H         5.4492172172        5.7631699394       -9.0654753333
 H         7.0481803666        5.2931172743       -9.9098139094
 H         7.1640330350        2.9277848951      -10.9501504469
 H         5.8680186122        1.9984076612      -11.0468379803
 H         6.7553651862        2.1250846859       -9.4340962108
 H         0.5679960966        1.0092897933       -6.7062598826
 H         1.7262258333       -0.1371837576       -6.0154282261
 H        -0.0645549300       -0.3606511343       -5.9135430819
 H        -0.0436707370       -2.4604782911       -8.0120088877
 H         1.3791704598       -2.4458488508       -7.0524506944
 H         1.5068917696       -2.4646425201       -8.6869967227
 H        -4.5596718641       -2.8805594281      -13.5107113178
 H        -2.9256185944       -2.7051410345      -14.0172645707
 H        -4.1941464665       -1.6720871578      -14.8109588977
 H        -1.9634798891       -0.0214916179      -14.3409215264
 H        -2.6780481443        1.1133239491      -13.1601415944
 H        -3.7519591534        0.5715149845      -14.4732538408
 H       -10.3646677342        0.9932643821       -9.9454255496
 H        -9.6747952306        0.6077197672      -11.5577257710
 H        -8.7384104824        1.3594167870      -10.1592170984
 H        -9.6238729040       -0.6137841581       -7.8772187131
 H        -7.9799575303       -0.5361732880       -8.3452886268
 H        -8.7904534472       -2.1488892142       -8.3623527768
 H       -12.8038349332       -5.5137267699      -12.1042978237
 H       -14.0021709763       -6.7766488657      -11.8350106686
 H       -12.3674995139       -7.1537402439      -11.4727692051
 H       -15.2133109953       -5.8306687137       -9.3348487555
 H       -14.6068960374       -4.4989312776      -10.2709268460
 H       -14.1301918212       -4.6394095023       -8.4694278995
 H       -10.7888109645      -10.4565654936       -4.6338280475
 H       -10.8946247963      -11.1688876614       -6.3109901193
 H       -11.2590622506      -12.1919182711       -4.9013498707
 H       -14.5875655693      -11.6477482495       -6.0502076803
 H       -13.2777774596      -12.7827538961       -5.8992367242
 H       -13.2277664228      -11.8153318807       -7.3297472865
 H       -14.1180783134       -6.5520564776       -0.6502834913
 H       -12.6907133647       -6.8542897560        0.2186274590
 H       -14.0844947132       -6.3783150337        1.1118226836
 H       -14.3947500258       -9.9625252857        2.1745551970
 H       -13.8679057956       -8.2151713248        2.6096954098
 H       -12.7526570407       -9.2124719332        1.6953453380
 H       -19.7465613377       -6.8944242615       -0.1241251570
 H       -20.8269885619       -8.2473547125        0.0382914053
 H       -20.9155248482       -7.1821636336       -1.3557327876
 H       -20.7477787239      -10.2758995207       -1.7855084556
 H       -19.3449056784      -10.4409852746       -2.6677942946
 H       -20.5623659001       -9.1676445336       -3.1387245979
 Na      -16.3706074046      -10.7147216879       -2.4500349057
 Na        5.3018892400        4.2838857183      -14.7276440166
