232

 C        14.2533551428       -2.4075761424       -5.9635789486
 C        13.4290061075       -3.6602920768       -5.8135217240
 O        12.6147454382       -4.0818446612       -6.6275778190
 C        13.8310618900       -4.6507447916       -4.6434023494
 C        12.4797130519       -5.1099060359       -3.7781710945
 O        11.3799289060       -4.5975896583       -3.9298272354
 C        12.7647077446       -5.9065334983       -2.5135888700
 C        11.7157823288       -6.9150419343       -2.3344743156
 C        11.4320390490       -7.6303924244       -3.6662745654
 O        12.0585641453       -7.2849542631       -4.6654584959
 C        10.4252577549       -8.7597492442       -3.8889824171
 C         9.7756949324       -8.6572170248       -5.4119491319
 O         8.9432117272       -7.8423717499       -5.6752435047
 C        10.3251172541       -9.7006460445       -6.4919355659
 C         9.8346943786       -9.2660259463       -7.8609236978
 C        10.4351097085       -7.9242879044       -8.3695390236
 O        11.2381532169       -7.3246307589       -7.6883844493
 C         9.8354502910       -7.5069192932       -9.8040184286
 C         8.4582668223       -6.8827966341       -9.3333218624
 O         7.5199982423       -7.5384586871       -9.0026046043
 C         8.3822398500       -5.3004779363       -9.1483464033
 C         7.1565127319       -4.7850856693       -8.4435259590
 C         7.2260851364       -4.5579146892       -6.9068153008
 O         8.2741887332       -4.5648435599       -6.2496955479
 C         5.8835370757       -4.0302265224       -6.1186652215
 C         5.0302456628       -3.0370520554       -6.9359265977
 O         5.5424535318       -2.3559212889       -7.8324248999
 C         3.5645981722       -2.8464971068       -6.5612915308
 C         2.6646243284       -2.8331147980       -7.8637835289
 C         2.4300209590       -4.2691627837       -8.4007734030
 O         3.3437975758       -4.9652593555       -8.7082929858
 C         0.8603115085       -4.7649743765       -8.4884159139
 C         0.2915671557       -3.7133783444       -9.5204459582
 O        -0.0646669606       -2.5560010912       -9.1806082077
 C         0.2410531759       -4.2032050116      -11.0048648269
 C        -0.3429163214       -3.1575247013      -12.0150531543
 C        -1.7831234202       -2.8548820734      -11.6563033623
 O        -2.3451362679       -3.4401542630      -10.7709984028
 C        -2.6460023815       -1.8218285029      -12.4764137364
 C        -4.1537489507       -2.2979012295      -12.4961698152
 O        -4.6118598127       -3.0106857390      -13.4053794095
 C        -5.0077310982       -2.1007044260      -11.1368639199
 C        -6.0819816412       -3.1477748792      -10.8566535029
 C        -7.3000231004       -3.1221244034      -11.8072399268
 O        -7.6978682910       -2.0162110378      -12.2144822138
 C        -7.9777542951       -4.4368784563      -12.2011601357
 C        -9.4933957132       -4.1921458687      -11.5877257489
 O        -9.8568900200       -4.7935190948      -10.6602855439
 C       -10.3864120091       -3.0385249506      -12.0496266981
 C       -11.4476366014       -2.6645685833      -10.9247088554
 C       -12.2376361247       -1.4064784712      -11.1383046346
 O       -11.8155301784       -0.4858411735      -11.7601896400
 C       -13.6547300842       -1.3046067158      -10.4630678733
 C       -14.3573549356       -0.0032811756      -10.7416783494
 O       -14.4723762570        0.3922361384      -11.8678916514
 C       -15.1470443710        0.7187804597       -9.5281687759
 C       -14.8187494311        2.2010718403       -9.7283993764
 C       -13.6109641029        2.7229674865       -8.8335890964
 O       -13.2603525671        2.0961365966       -7.8488192627
 C       -13.0482737570        4.1968201301       -8.9599854234
 C       -11.8397057122        4.1783221985       -9.9785094852
 O       -12.1306617335        3.7045776504      -11.0827834426
 C       -10.4931275870        4.9098062891       -9.5720537632
 C        -9.4290531202        4.7834966467      -10.6123580181
 C        -9.6757405848        5.5777650643      -11.9518907882
 O       -10.4203935087        6.4739574905      -11.9481383882
 C        -9.1490072698        4.9082861903      -13.2511214714
 C       -10.4257494219        3.8771422297      -13.5798262160
 O       -10.4964409022        2.8275902721      -12.9637284949
 C       -11.4818296122        4.6090667470      -14.4566483208
 C       -12.9165951486        4.2139237044      -14.1578191335
 C       -13.4232053954        3.1011928110      -15.0366601600
 O       -13.0854059209        1.9367338945      -14.7847002381
 C       -14.4176470709        3.3087288271      -16.2190819534
 C       -15.8240725694        3.6205387107      -15.5925451986
 O       -16.0887583786        3.5441122004      -14.3877027196
 C       -16.8052752204        4.2986592158      -16.5014589054
 C       -17.9150663771        5.0471435045      -15.7046974419
 C       -17.2632220828        6.3295970389      -15.1165914183
 O       -16.1185077482        6.5707414774      -15.3844340566
 C       -18.0695125425        7.4545732870      -14.3182810948
 C       -18.5593726127        6.8841166571      -13.0089007058
 O       -19.6995831313        6.9882819281      -12.5844296417
 C       -17.5956818273        6.0958759254      -12.0068277750
 C       -17.1621410787        8.7472074775      -14.1940694666
 C       -19.4119216562        7.7533987403      -15.1770283263
 C       -14.1903048994        4.5518967283      -17.1135342868
 C       -14.5022371219        2.0392842815      -17.0107088314
 C        -8.8201601838        5.9218188938      -14.3142731285
 C        -7.8660655692        4.0073868216      -13.0190123867
 C       -14.1687715874        5.1576356655       -9.5088914123
 C       -12.5174005105        4.6431952619       -7.5544396006
 C       -14.5755107064       -2.3697261746      -11.3717941663
 C       -13.6382605515       -1.6922815329       -8.9822123687
 C        -7.9992265989       -4.4197998398      -13.7980591049
 C        -7.5396460302       -5.7710513348      -11.5807177885
 C        -2.2465181573       -0.5115024953      -11.7027209300
 C        -2.1679401754       -1.8750768440      -13.9187493183
 C         0.8057203990       -6.2546861105       -8.8858178625
 C         0.2480866371       -4.5891866141       -7.1000478503
 C         5.0705417137       -5.3530592626       -5.7998703852
 C         6.1752702031       -3.2915600691       -4.7467042364
 C        10.8097239282       -6.5640809298      -10.5635273108
 C         9.4630592127       -8.7331160099      -10.7091300490
 C        11.3253092889      -10.0005536134       -3.4874304139
 C         9.1601248099       -8.5954502741       -3.0968592903
 C        14.4556902257       -6.0361032573       -5.2416389403
 C        14.7473457461       -3.9625767329       -3.4950902605
 H        14.1354286338       -1.8156353962       -5.0787362398
 H        13.9656501500       -1.9386843791       -6.8391381077
 H        15.2391272427       -2.7725310332       -6.0173573874
 H        12.7652715651       -5.1717563634       -1.7779166154
 H        13.8295982157       -6.3265972548       -2.5685777643
 H        10.7241695513       -6.5917744652       -2.0475024457
 H        11.8384268941       -7.6422964193       -1.5828286634
 H         9.9618528941      -10.6663858604       -6.1101289345
 H        11.4117000876       -9.7509770150       -6.3830059892
 H         8.8198756523       -9.1367551182       -8.0723608381
 H        10.0710562178      -10.1199348355       -8.5402654790
 H         8.5679227789       -4.8739243894      -10.1019382883
 H         9.2603222510       -5.0303816877       -8.6001107379
 H         6.2869179091       -5.3974015043       -8.6235316800
 H         6.9926516913       -3.7348180659       -8.6710541638
 H         3.3723140168       -1.9456430941       -5.9973663867
 H         3.2084011399       -3.5753440849       -5.8659902930
 H         3.0775710238       -2.3269741312       -8.7286208339
 H         1.7691036519       -2.1757617385       -7.6510032898
 H        -0.4178776512       -5.1488016503      -10.9708087196
 H         1.2853828114       -4.4917078030      -11.3234225763
 H        -0.3410056677       -3.5006300993      -13.0437609812
 H         0.3722362827       -2.3933756646      -12.0657294947
 H        -5.5836907394       -1.1442148732      -11.3182363268
 H        -4.3433444255       -1.9381001746      -10.2505616685
 H        -6.3569438855       -2.9336513672       -9.8614925869
 H        -5.6007026336       -4.1026226834      -10.8540086486
 H       -10.9720235297       -3.4466818778      -12.8048963499
 H        -9.9956951812       -2.1154560198      -12.4282203999
 H       -10.9491936506       -2.3241630645       -9.9717116202
 H       -11.9484873435       -3.5138030071      -10.5323743015
 H       -14.9061139875        0.4042699214       -8.5064297090
 H       -16.1433612167        0.3770475007       -9.5648810604
 H       -15.6074895618        2.7922378311       -9.2786959628
 H       -14.6009163512        2.5490361036      -10.7799680812
 H       -10.2344130765        4.6148228168       -8.5455586124
 H       -10.7434157955        5.8939324205       -9.3282214299
 H        -9.3901049704        3.7674743858      -10.9102496013
 H        -8.5430477650        5.1475070551      -10.1235396185
 H       -11.2466761865        4.3545242868      -15.4863468375
 H       -11.3068234471        5.6521649721      -14.3713266762
 H       -13.5638380582        5.0819770014      -14.2623444176
 H       -12.9434224738        3.9183890548      -13.0863455905
 H       -17.3403978587        3.4415342445      -16.9888444254
 H       -16.3750841441        4.9939323652      -17.2273276725
 H       -18.3935726007        4.3545737548      -15.0225441663
 H       -18.7463753656        5.2483626841      -16.3986556444
 H       -18.2058111791        5.7836939511      -11.1620341260
 H       -16.8293209453        6.7838049418      -11.5341311461
 H       -17.3474687631        5.1746398093      -12.5263558120
 H       -16.1959569279        8.6367719833      -13.7301207839
 H       -17.6516045934        9.6209705635      -13.6928498495
 H       -16.8908141347        9.0595845165      -15.1852752456
 H       -19.9708010234        6.8427565524      -15.3553493572
 H       -19.0383033557        8.1472358266      -16.1138343246
 H       -19.9368832229        8.4657694905      -14.5357385994
 H       -14.6295433656        4.4878856056      -18.1390693829
 H       -13.1328133613        4.6232511934      -17.3142398812
 H       -14.5409463492        5.4985861387      -16.7354779694
 H       -15.4131547076        1.8958077489      -17.6532557667
 H       -14.4767441601        1.1573162348      -16.3788063947
 H       -13.6365855284        1.7579595230      -17.5816006060
 H        -7.8113394631        6.3382385429      -14.0771981060
 H        -9.6457564198        6.6294173539      -14.3159789314
 H        -8.7534101847        5.5347846136      -15.3589853915
 H        -8.0464618873        3.0373013540      -12.4619841212
 H        -7.1079761618        4.5150631617      -12.4491185227
 H        -7.4664608026        3.8513156168      -14.0321191537
 H       -15.2434253780        4.9124155397       -9.0901313063
 H       -14.1726516552        5.0299321529      -10.5000551240
 H       -13.8748422076        6.1161340307       -9.1282939055
 H       -13.3074505512        4.5297151651       -6.7800098785
 H       -12.1618741908        5.6567368025       -7.5101332440
 H       -11.8237193283        3.8218448302       -7.2289071863
 H       -14.1630372040       -2.4075923900      -12.3158569318
 H       -15.5575128015       -2.0243304268      -11.2135081073
 H       -14.6135258296       -3.3896617962      -10.9380488898
 H       -13.2631369724       -2.6797666307       -8.8889214598
 H       -14.6737518137       -1.6553224928       -8.5855067578
 H       -12.9771563825       -0.9756025189       -8.4670977440
 H        -8.6956080265       -5.2618343956      -14.1534400246
 H        -7.0177623328       -4.7577794432      -14.1869183465
 H        -8.2439255575       -3.4309996719      -14.1549695067
 H        -8.2590505757       -6.6127067721      -11.8794506859
 H        -7.3609564525       -5.8181801158      -10.4947306161
 H        -6.6731942605       -6.2070809144      -12.1039624005
 H        -2.5693294019       -0.6305266418      -10.6616848444
 H        -2.6825235330        0.3867283414      -12.1251431741
 H        -1.1308604870       -0.3901277168      -11.8083085662
 H        -1.1402215476       -1.5280864469      -14.0465942041
 H        -2.7422739454       -1.3524191417      -14.6775490675
 H        -2.3194942348       -2.8692008282      -14.1845598679
 H        -0.2661049319       -6.5206514467       -8.9114454854
 H         1.3045026268       -6.7868335122       -8.0879775752
 H         1.2776275977       -6.4362255542       -9.8007534443
 H         0.6459337507       -5.2490615862       -6.3554325173
 H        -0.7241512452       -4.9109612617       -7.1225029371
 H         0.4581935613       -3.5394356448       -6.8237604149
 H         4.3961288005       -5.6491368219       -6.5649942601
 H         4.3814356424       -5.1827628562       -4.9601552402
 H         5.6746505376       -6.1535534856       -5.4002488510
 H         6.3170309540       -2.2253479939       -4.9943650949
 H         7.0069888130       -3.5797959200       -4.0914454872
 H         5.2399733952       -3.4780250779       -4.0931937482
 H        10.4234526899       -6.4429298557      -11.5532870908
 H        11.7443898982       -7.1383396833      -10.7052950527
 H        11.0821196598       -5.7018485430       -9.9456385754
 H         8.5711364690       -9.2706502091      -10.3825835441
 H        10.3332726207       -9.3879425422      -10.8455871393
 H         9.1690898998       -8.3306052933      -11.6523178773
 H        11.4305562953       -9.8947585685       -2.3988979719
 H        12.2429082896       -9.9638412135       -4.0345074636
 H        10.8623580355      -10.9768734068       -3.5124603457
 H         8.5872059338       -9.5317988706       -3.0688769494
 H         8.5147015074       -7.7504937648       -3.4544083924
 H         9.3399212097       -8.2450110043       -2.1112221363
 H        15.4873992168       -5.7715498365       -5.4757839420
 H        13.8504162874       -6.2192328169       -6.0796427946
 H        14.3344136646       -6.8678360496       -4.5383251741
 H        14.9489536951       -4.7387272370       -2.8020335281
 H        14.3278391882       -3.0116290558       -3.1420794571
 H        15.7441234700       -3.7107516875       -3.9343681676
 Na       10.4909446033       -5.5438949279       -5.9201699564
 Na      -12.5125106284        1.6671547472      -12.5276259158
