232

 C        13.9328006356       -2.3728826465       -6.2264854263
 C        13.0285677020       -3.4884191239       -5.6242631178
 O        11.9921170815       -3.7509834283       -6.1901409487
 C        13.4554066899       -4.3713198939       -4.3795723072
 C        12.3225124857       -4.8667510605       -3.4339271047
 O        11.2816851732       -4.2884825106       -3.3213206408
 C        12.7976886079       -6.0821113860       -2.5248333251
 C        11.6440975867       -7.0533430781       -2.4551894855
 C        11.2055628511       -7.6643589182       -3.8424388025
 O        11.7627394363       -7.2305511742       -4.8214900915
 C        10.1523236437       -8.7578692636       -4.0562608876
 C         9.5959349198       -8.6302467917       -5.4829211289
 O         8.6709310782       -7.8594654705       -5.7963108913
 C        10.3298006242       -9.4560453809       -6.6271551804
 C         9.6389479796       -9.1724785695       -7.9485454195
 C        10.0409538111       -7.8295331214       -8.5184542768
 O        10.9041727229       -7.1441116273       -8.0126804561
 C         9.4710775059       -7.3875775711       -9.9437252157
 C         8.3094824658       -6.3822341527       -9.6674104990
 O         7.1375523538       -6.6471120919       -9.7884438842
 C         8.6996165305       -4.8750687867       -9.3334951525
 C         7.5873987267       -4.2050564037       -8.5028874998
 C         7.4776130627       -4.4607466589       -6.9461816761
 O         8.3904864845       -4.8453301095       -6.2652300413
 C         6.0439344651       -4.2676056487       -6.2613068758
 C         5.0883558986       -3.2533420356       -6.9423603604
 O         5.6583041568       -2.4504806110       -7.6843383572
 C         3.5901157228       -3.1259607275       -6.7574437385
 C         2.8886045217       -2.8061175509       -8.0531073525
 C         2.2739561467       -4.0921112946       -8.6376718316
 O         2.8873292698       -4.7555723981       -9.4556833538
 C         0.7487975150       -4.5261291298       -8.2673562803
 C        -0.1376836242       -3.7617236366       -9.3104241013
 O        -0.7355258177       -2.7524535036       -9.0533826265
 C         0.0321604921       -4.5551465621      -10.7221100673
 C        -0.3732827764       -3.6289605695      -11.8993458469
 C        -1.8857165408       -3.5075132219      -11.9048996995
 O        -2.5720504279       -4.3518135084      -11.3415022626
 C        -2.6142699908       -2.2661093243      -12.8428450443
 C        -4.1448974867       -2.4939808319      -12.6437715433
 O        -4.8960358825       -2.9016074663      -13.5043016913
 C        -4.7205261800       -2.2529612890      -11.2509238682
 C        -5.8959195592       -3.2646731897      -10.9444816972
 C        -7.0523509785       -3.1541536895      -11.9508043998
 O        -7.3517437005       -2.0154933473      -12.2598212197
 C        -7.9394757511       -4.3075412006      -12.3522849742
 C        -9.1718673965       -4.1762314780      -11.4367543165
 O        -9.2368153680       -4.8189553895      -10.4198140538
 C       -10.1493716949       -3.0691388170      -11.8015721541
 C       -11.3677023326       -2.9812103083      -10.8716005207
 C       -12.0888732679       -1.6046905668      -11.0588376782
 O       -11.6370975196       -0.8333859150      -11.8767630783
 C       -13.6052852439       -1.4666776491      -10.4601676272
 C       -13.9227405301        0.0926920792      -10.3658856350
 O       -13.7762148418        0.7637816140      -11.3795290089
 C       -14.4633032314        0.6371250569       -9.1120849825
 C       -14.6427054902        2.1414645376       -9.1807908217
 C       -13.4333156152        2.8892159329       -8.5616579096
 O       -12.6611490488        2.2274739750       -7.8556668316
 C       -12.9893817725        4.3531167087       -8.9601058790
 C       -11.9113087922        4.1442645958       -9.9984730033
 O       -12.1557891168        3.3840324062      -10.9235814249
 C       -10.5439563323        4.8064364768       -9.8652745695
 C        -9.4646002499        4.4273064429      -10.9052019819
 C        -9.4669103296        5.3971523723      -12.0838690432
 O        -9.7358589706        6.5137421219      -11.7892170959
 C        -8.9880735265        4.8965321878      -13.5215791082
 C       -10.2396488002        4.1342713639      -14.1549258634
 O       -10.2643471485        2.9231549389      -14.2710557774
 C       -11.4772204974        4.9116855353      -14.5863273651
 C       -12.8149182677        4.3994424654      -14.0022539230
 C       -13.3355321867        3.1563574856      -14.7239483478
 O       -13.0338670866        2.0160804856      -14.3793488696
 C       -14.4212591726        3.3245051947      -15.7694945510
 C       -15.7584019970        3.6987791418      -14.8766642038
 O       -15.6127369884        4.0111119728      -13.7281328170
 C       -17.0339623822        3.7153925125      -15.6789802313
 C       -18.0672773563        4.7581085719      -15.1131787570
 C       -17.4361659910        6.1460305050      -14.8224241973
 O       -16.2755702424        6.3630075748      -15.0949692958
 C       -18.2696630581        7.2665657673      -14.1570554646
 C       -18.5859711752        6.9194649407      -12.7069157613
 O       -19.7079243624        7.1102964902      -12.2204970471
 C       -17.5842630683        6.1193213795      -11.8569970305
 C       -17.4295204801        8.6385574036      -14.3072221757
 C       -19.6108837423        7.4627794021      -14.9408817586
 C       -14.2290895768        4.5988990874      -16.7363597723
 C       -14.7420262163        2.0012544622      -16.4757818612
 C        -8.4355276932        6.1391979075      -14.2273489688
 C        -7.9778814900        3.6972149207      -13.3597421951
 C       -14.1732215008        5.1937001392       -9.4693101271
 C       -12.5553414964        5.0209721318       -7.6429823409
 C       -14.6395231061       -1.9116963885      -11.6151867055
 C       -13.8463632837       -2.3696505760       -9.1440156866
 C        -8.2563812500       -4.0306496449      -13.8645626233
 C        -7.3538147270       -5.7787968870      -12.2758705221
 C        -2.0894198800       -0.9162877389      -12.4213196502
 C        -2.2744321262       -2.4584153929      -14.2969432996
 C         0.6505293870       -6.0451686586       -8.5378702724
 C         0.2989313387       -4.1033344349       -6.8696926417
 C         5.3672322403       -5.6907598189       -6.1247689235
 C         6.2035298835       -3.6413390958       -4.7614154432
 C        10.6278022356       -6.6689444737      -10.7912061297
 C         8.9978165461       -8.6168953293      -10.7365776513
 C        10.9603639274      -10.0208398644       -3.6586017319
 C         8.8901452243       -8.5746441785       -3.1835646861
 C        14.6004024750       -5.2698869363       -4.9941359848
 C        14.2154313570       -3.3528050992       -3.3522457794
 H        14.2072526638       -2.8030198199       -7.1516842721
 H        14.7108067527       -2.0009814058       -5.6188819343
 H        13.2142913611       -1.5673555985       -6.5015160853
 H        13.1235082608       -5.8128517995       -1.4655453557
 H        13.7018862977       -6.4812124725       -3.0226709387
 H        10.7017270521       -6.6396104328       -2.0817096520
 H        11.8980857049       -7.8488888574       -1.6991816982
 H        10.2680799895      -10.4526665429       -6.2280613026
 H        11.4421385982       -9.2543419899       -6.6337538997
 H         8.5217609578       -9.0841716333       -7.9191440056
 H         9.8278504464       -9.9228687523       -8.6644294568
 H         8.7167880002       -4.3385094150      -10.3126706361
 H         9.6981765817       -4.9581557104       -8.9053218548
 H         6.6600279056       -4.4432097762       -8.9174807964
 H         7.7032129464       -3.1197819824       -8.5577818029
 H         3.4872924816       -2.3388100212       -5.9884207722
 H         3.1421827740       -4.0799307487       -6.3616138439
 H         3.6454561908       -2.4256423640       -8.8033472216
 H         2.1278800137       -2.0661148483       -7.9757260323
 H        -0.7352209189       -5.3097235627      -10.5967022355
 H         1.0872513278       -4.9020713491      -10.9285954297
 H        -0.0483212536       -4.0476480368      -12.8448778219
 H         0.2055294059       -2.7200611590      -11.7246996385
 H        -5.1557074812       -1.3093423592      -11.2478185062
 H        -3.9633472472       -2.1906067308      -10.4962185338
 H        -6.1945596681       -2.9786647598       -9.9533690715
 H        -5.5233714358       -4.3371816759      -10.8287457647
 H       -10.5662646426       -2.9233626028      -12.7940101958
 H        -9.4783942876       -2.2609440695      -11.7963248572
 H       -11.0545817247       -3.3019619227       -9.9379309879
 H       -12.0828504654       -3.7115186645      -11.2523147125
 H       -13.7532592355        0.3178461071       -8.3328741480
 H       -15.4198869887        0.0838506479       -8.8271540638
 H       -15.6023121993        2.4261695076       -8.6190337999
 H       -14.7369887743        2.4683885339      -10.2262842142
 H       -10.2453961475        4.5075675118       -8.7969668731
 H       -10.6896399493        5.9288559511       -9.6707981329
 H        -9.5164510853        3.3218502877      -11.0927586562
 H        -8.4944530690        4.7325944662      -10.3768612215
 H       -11.5022721780        5.0187198922      -15.6769640716
 H       -11.3891335155        5.9625811441      -14.2087354827
 H       -13.5431723002        5.2025970367      -14.0904682623
 H       -12.7463315222        4.1854526568      -12.9221300524
 H       -17.4542516406        2.7342336664      -15.5237185805
 H       -16.8114435528        3.8976717868      -16.7336210903
 H       -18.2378257041        4.3224925651      -14.0933684013
 H       -19.0224960522        4.6961521707      -15.6666501652
 H       -18.1371485001        5.8617074159      -10.9553876450
 H       -16.6752095665        6.6966268871      -11.6596687551
 H       -17.3827560452        5.1277506721      -12.3828249114
 H       -16.5483312082        8.5187821051      -13.6438677647
 H       -17.7629863652        9.5689235072      -14.0255788855
 H       -17.0235406581        8.6022330127      -15.3515577767
 H       -19.7051754269        6.4969877661      -15.5627593797
 H       -19.4544875608        8.2738763766      -15.7415434579
 H       -20.3867106530        7.7453729573      -14.2512278653
 H       -15.0908156092        4.7464219681      -17.3677362311
 H       -13.5007890340        4.4602826278      -17.5061162326
 H       -13.9748744280        5.4833121472      -16.2018662669
 H       -14.9557505060        1.9623770188      -17.5326530284
 H       -15.5646353131        1.4864246792      -15.9855197109
 H       -13.9045629711        1.2655320583      -16.5576849128
 H        -7.9782741941        6.8837394140      -13.4743947629
 H        -9.1909456229        6.7040106477      -14.7616472979
 H        -7.7585574525        5.8702451909      -15.0354143776
 H        -8.3993578633        2.9513694817      -12.7028162255
 H        -6.9861043812        4.0028102170      -12.9876653130
 H        -7.8164622809        3.0950067251      -14.2899916370
 H       -15.0064947388        4.7731871190       -8.7758712818
 H       -14.4420647737        4.9306042413      -10.4071101140
 H       -13.8957915951        6.2384375254       -9.4865038866
 H       -13.4335078468        5.1838797176       -7.0044454473
 H       -12.1360484604        6.0114958065       -7.8656200191
 H       -11.6956794906        4.3937574591       -7.1748192942
 H       -14.5930478377       -1.2212491256      -12.3993799247
 H       -15.6516424498       -1.8602057752      -11.1990256784
 H       -14.3167764527       -2.9243421469      -11.9212930891
 H       -13.8192059672       -3.4596255206       -9.3948571652
 H       -14.7921423955       -2.0854174931       -8.7835980905
 H       -13.1881108797       -2.0445120192       -8.3304720841
 H        -9.2593994986       -4.5613897745      -14.0334459920
 H        -7.3885932363       -4.4274495727      -14.4165373878
 H        -8.4713363466       -2.9391325696      -13.9953954260
 H        -8.1515941405       -6.5682081674      -12.4274253424
 H        -6.9799300818       -6.0569580572      -11.2578570259
 H        -6.5451061140       -5.9448744274      -13.0932207200
 H        -2.3301350350       -0.8402437036      -11.4079308362
 H        -2.4906571704       -0.0498197857      -12.9521326107
 H        -1.0124048096       -0.9987873206      -12.3930466631
 H        -1.4241275120       -1.9548025916      -14.6541763453
 H        -3.1753694842       -1.9964418776      -14.8240167470
 H        -2.0437590635       -3.5282257700      -14.5815196614
 H        -0.2375696093       -6.3193552098       -8.9971380759
 H         0.8110639147       -6.6460926714       -7.6665147029
 H         1.4682011156       -6.1272966233       -9.2514710120
 H         0.2297652238       -3.0137850294       -6.8416053887
 H         1.0818916559       -4.4362166694       -6.1958727114
 H        -0.5332841412       -4.6657616525       -6.4540620040
 H         4.9612546024       -6.2578871502       -6.9504591139
 H         4.6039972641       -5.6169882867       -5.2968601839
 H         6.1309058544       -6.3604362845       -5.6984284655
 H         6.2663032622       -2.5609476641       -4.8917307370
 H         7.2486618356       -3.8900372517       -4.3409685932
 H         5.3808730836       -3.9289302801       -4.1226951362
 H        10.2291655535       -6.2286574381      -11.7121186067
 H        11.3784884372       -7.3685986011      -10.8569995547
 H        10.9432743042       -5.7600674160      -10.2999204535
 H         8.1744773248       -9.0546166044      -10.2401984144
 H         9.6542744702       -9.4595706295      -10.8893069067
 H         8.7024112107       -8.2534102919      -11.7089239356
 H        11.2170832850       -9.9651040346       -2.5558779188
 H        11.9546166451      -10.0459230321       -4.1712449798
 H        10.4743014005      -10.9601536034       -3.8905611386
 H         8.2975181610       -9.4867785162       -3.2865098896
 H         8.2688044852       -7.7705839869       -3.5673503550
 H         9.0222349065       -8.5476478938       -2.0849748306
 H        15.2072547210       -4.6569654046       -5.6465340982
 H        14.1154630089       -6.0107580163       -5.5888941519
 H        15.1528849408       -5.6577323146       -4.1423535434
 H        14.4599675016       -3.9677022094       -2.4908565692
 H        13.4906886508       -2.5844854108       -3.0151690061
 H        15.1214591733       -2.9431552492       -3.8087279622
 Na       10.6076986530       -5.5335357280       -6.0335791841
 Na      -11.7429634203        1.5814890909      -12.4824083599
