232

 C       -18.2686184343       -6.4162451094       -2.5585236707
 C       -18.1072093938       -7.9192836272       -2.3658279800
 O       -17.2969358840       -8.5231405160       -2.9742091389
 C       -19.2008175657       -8.6277294539       -1.4005093216
 C       -18.4759486795       -9.5357410401       -0.3668123043
 O       -18.0459324011      -10.6158840447       -0.7133192822
 C       -18.2184961893       -8.9815270232        1.0359179822
 C       -16.7558283478       -9.0901443390        1.3996982208
 C       -15.9146057403       -8.2173930575        0.5087760959
 O       -16.2968055011       -7.3616071415       -0.2932686603
 C       -14.3550038111       -8.4087919634        0.5494887196
 C       -14.2451533493       -9.3476230337       -0.6406441534
 O       -14.7571852086      -10.4895948955       -0.5678347185
 C       -13.6875804204       -9.0266292869       -2.0329120078
 C       -12.9684019415      -10.1800095941       -2.6769328318
 C       -13.5826413555      -10.5552674112       -4.0453675773
 O       -14.8071085620      -10.6605496746       -4.1479096781
 C       -12.7114472746      -10.8234502917       -5.3346721939
 C       -12.6195542199       -9.4028879862       -5.9918171630
 O       -12.5316197901       -8.3899336352       -5.3025570169
 C       -12.8374060845       -9.1840110851       -7.5242934325
 C       -12.4688217199       -7.7799104846       -7.9946739762
 C       -13.3583498149       -7.4039675137       -9.1731849446
 O       -14.3800288665       -8.0285519344       -9.4036005912
 C       -13.0255549218       -6.0739021582       -9.8482300673
 C       -11.7219239139       -5.2651186143       -9.3298729326
 O       -10.7164771317       -5.8749993157       -9.1749137754
 C       -11.7428946037       -3.7870469398       -9.2596541813
 C       -10.7184018408       -3.1428018945      -10.1823687912
 C       -10.7276397130       -1.6863917276      -10.1295725113
 O       -11.7679873869       -1.0980186359      -10.3210736262
 C        -9.3509144966       -0.9357843231       -9.9618273848
 C        -8.2620085514       -1.6092746943      -10.9086172445
 O        -8.6463203990       -2.4311427734      -11.7257509358
 C        -6.8591592414       -1.0855687022      -10.6630274588
 C        -5.8702451354       -1.4166002742      -11.8203388533
 C        -4.7513248282       -0.4406108956      -12.2742247856
 O        -4.7092603144        0.6989683570      -11.9006942740
 C        -3.5235760013       -0.9290674701      -13.0876034938
 C        -2.3346736606       -1.2037160677      -12.0345912346
 O        -1.6618117651       -2.1493387651      -12.3992365462
 C        -2.0046376409       -0.3810685991      -10.8194429860
 C        -0.6756489744       -0.8801645303      -10.1513898412
 C        -0.2284609856        0.0821240305       -8.9528033122
 O        -0.3718104472        1.2312895434       -8.9404879453
 C         0.9208934278       -0.5824841646       -7.9453926119
 C         2.2330027848       -0.0627647061       -8.5802858592
 O         2.9921103288       -0.7080132884       -9.3459929097
 C         2.5894408975        1.4067448912       -8.2870401061
 C         3.8444109798        1.8153116277       -9.0942354707
 C         4.2469203849        3.2045731181       -9.1316806943
 O         3.7228142599        4.0469607683       -8.3916135367
 C         5.3699583776        3.7250778584      -10.0945020020
 C         4.8179411171        4.2813999051      -11.4386615577
 O         5.2927255811        3.7268724221      -12.4494010082
 C         3.7891446190        5.4658492044      -11.5596213270
 C         4.6282281636        6.7254993724      -12.0535164808
 C         4.5278645952        7.0886223208      -13.4719402204
 O         3.7760453702        6.5423078697      -14.2559195614
 C         5.2322603765        8.3406209929      -14.0047321377
 C         5.9953090841        7.8509278832      -15.3726258293
 O         5.4946523442        8.1436570810      -16.4331985371
 C         7.2419526444        7.0424681990      -15.1921787506
 C         7.8879925298        6.3462140541      -16.4484314441
 C         7.1739427271        5.1703761224      -17.0965127297
 O         6.2122124614        4.6489221552      -16.5996098840
 C         7.7236107795        4.6252868340      -18.4804965825
 C         9.2660365073        4.1382299274      -18.3306749058
 O         9.7298082561        4.0344764079      -17.2283302420
 C        10.1590756917        3.7003870583      -19.4819301008
 C        11.1403956493        2.6193727865      -19.0235688011
 C        10.4777495228        1.2669108705      -18.6635878210
 O         9.4347567666        0.9069612050      -19.1898718238
 C        11.2217751307        0.4071230639      -17.6219635333
 C        10.6218060226        0.5476933249      -16.1612961971
 O        11.2756523638        0.3902321739      -15.1903455356
 C         9.1472070879        1.0656567980      -16.0384447801
 C         8.2998599869        0.5871880241      -14.8936845154
 C         6.9348116190        1.2608379334      -14.9251981034
 O         6.9108402062        2.4547129991      -15.0442982337
 C         5.5232758906        0.4986195210      -14.5182036404
 C         4.2314436083        1.2593746074      -15.3133659639
 O         4.0336358274        2.4331125836      -15.2162389484
 C         3.3015762647        0.3483854055      -16.1077378788
 C         5.6084979843       -1.0552432700      -14.9201566247
 C         4.9757078935        0.6197077796      -13.1189743786
 C        10.8025133018       -1.0606339851      -17.9202988349
 C        12.7241159658        0.4873373975      -17.5331331028
 C         6.8925356722        3.3655163618      -18.8701364606
 C         7.8113937901        5.6094335559      -19.5463249842
 C         4.1526362479        9.3371135772      -14.3318364316
 C         6.4143303367        8.9588439875      -13.1016495353
 C         6.0743155321        4.9054982689       -9.3887801681
 C         6.4031708587        2.5590143411      -10.3343884406
 C         0.7322833544        0.0289106532       -6.4127715522
 C         0.9069973889       -2.1680961067       -8.0251899276
 C        -3.7653574274       -2.2183662048      -13.8776267009
 C        -2.9749669284        0.1751221835      -14.0149018949
 C        -9.4793282364        0.6117772082      -10.4245736537
 C        -8.8297891586       -1.1437566724       -8.4763095468
 C       -12.9807036519       -6.2158589751      -11.3638758648
 C       -14.2825598499       -5.2455743365       -9.4152495207
 C       -11.2469005658      -11.2350097473       -5.0347217177
 C       -13.5525949192      -11.8515226293       -6.1697297425
 C       -13.6997557253       -7.0509065702        0.2831565057
 C       -13.7651255597       -8.9983436898        1.8298199050
 C       -20.1885717135       -7.6693985566       -0.7684013234
 C       -19.9725283229       -9.5532766952       -2.3475511596
 H       -19.2893720840       -6.0168056383       -2.4731861805
 H       -17.8834025730       -6.2442655915       -3.5504987206
 H       -17.6211198712       -5.9300547958       -1.8036777460
 H       -18.7192958675       -9.5459882667        1.8497806268
 H       -18.4425525483       -7.8987553765        1.1553017648
 H       -16.4232847903      -10.1617087765        1.2279540694
 H       -16.5032223976       -8.7583376722        2.4237631556
 H       -13.0070383339       -8.2103022745       -1.9960484638
 H       -14.6024491358       -8.7761793293       -2.6230565751
 H       -13.0605033865      -11.0674424361       -2.0684414788
 H       -11.8495603427       -9.9463940445       -2.7558337937
 H       -13.9226827413       -9.2201772254       -7.7146645110
 H       -12.3519090092       -9.9927358207       -8.1181842165
 H       -11.3990351090       -7.6320287784       -8.3154561811
 H       -12.5800474090       -7.0971764390       -7.1926490781
 H       -11.6143458155       -3.3889736438       -8.2130737352
 H       -12.7212162599       -3.3692398350       -9.3784802524
 H       -10.7895902840       -3.3940166028      -11.2094413659
 H        -9.8450895156       -3.7106008162       -9.9073076341
 H        -6.5347304466       -1.5995771001       -9.8147150784
 H        -6.8255849250       -0.0251623673      -10.4647298989
 H        -6.4070728396       -1.5888365892      -12.8270814070
 H        -5.4847402319       -2.3944864116      -11.5923957999
 H        -2.7444063329       -0.4884832569       -9.9535801732
 H        -1.9489709613        0.6933959281      -10.8647447455
 H         0.2183916930       -0.6995090690      -10.7467948919
 H        -0.7434789885       -1.8649300562       -9.7854924395
 H         2.6335870611        1.7737944736       -7.2816794391
 H         1.6202132085        2.0158594074       -8.5832363108
 H         3.8388092268        1.6024629019      -10.1707323724
 H         4.7091239007        1.2229976860       -8.7785662786
 H         3.2151551555        5.9024611848      -10.6577658997
 H         2.8926328895        5.4557712491      -12.2672552832
 H         5.6498633491        6.6564221192      -11.6912961079
 H         4.3358938828        7.5968193667      -11.4750643128
 H         7.1213925774        6.2700464580      -14.4088621955
 H         7.9760960670        7.7823603681      -14.7453256578
 H         9.0052095017        5.9032914958      -16.2220865090
 H         8.0198968554        7.0587254548      -17.2117818146
 H        10.6628816983        4.6658114888      -19.6547854185
 H         9.5606793840        3.2101041501      -20.3151165940
 H        11.8977054917        3.0077970051      -18.3186189786
 H        11.7660683727        2.3496156379      -19.8930894697
 H         8.4365884644        0.8687204666      -16.8277250428
 H         9.3168668943        2.1476776073      -16.0987901195
 H         8.8710075288        0.7720942168      -13.9703865318
 H         8.0882953173       -0.4632874992      -15.1175405250
 H         3.7978528227       -0.5575576835      -16.3707095783
 H         2.9021212237        0.9245888442      -16.9715548779
 H         2.5244500806        0.1498603740      -15.4603742202
 H         4.5893369958       -1.5243314495      -14.6792108440
 H         6.3707156176       -1.4998971422      -14.3008380461
 H         5.7923658647       -1.0819569456      -16.0202953819
 H         3.9874621752        0.1077877559      -13.0391034271
 H         4.9340922823        1.6306076048      -12.9565830749
 H         5.6799461208        0.2069113009      -12.4452696820
 H        11.1566830722       -1.6074378577      -17.0669402698
 H        11.3036758317       -1.4257754777      -18.7767953603
 H         9.7477823548       -0.9588232030      -17.9430019777
 H        13.1149763127       -0.0264460678      -18.3835711881
 H        13.0216814397        0.0170030110      -16.6168669691
 H        13.0915994193        1.4532855138      -17.7457568394
 H         6.0342211485        3.6996361512      -19.4068937498
 H         6.5249042683        2.9212026740      -17.9929803043
 H         7.5084366238        2.6727879431      -19.3919496098
 H         8.6012784856        6.4127718810      -19.2797461768
 H         6.9346306894        6.1243522312      -19.7498957730
 H         8.2527704457        5.1067885907      -20.4922331034
 H         4.2115134360        9.8852400157      -15.2867255860
 H         4.1276325771       10.0565194555      -13.4823443602
 H         3.1976860262        8.7781188826      -14.2945167484
 H         6.9955396046        9.7125318604      -13.6724420653
 H         7.0985953573        8.2094186324      -12.7678876001
 H         5.9430891851        9.3997250087      -12.2115290950
 H         6.4475410350        4.4856620463       -8.4462425788
 H         5.3320971680        5.6271000700       -9.3952364489
 H         6.9769190320        5.1575215382       -9.9544727561
 H         7.1935769174        2.8907428900      -10.9402020142
 H         5.9797946121        1.7654118990      -10.9339512461
 H         6.8385966735        2.3402194554       -9.4047150906
 H         0.1414968750        1.0373831089       -6.5501764291
 H         1.6322313118        0.1344680267       -5.7562977110
 H        -0.0943541976       -0.5611852283       -5.9406983751
 H        -0.0699419901       -2.6356025162       -7.8774137753
 H         1.5070483493       -2.6137788264       -7.2784267395
 H         1.4068863446       -2.5528898979       -8.8740733025
 H        -4.4394581173       -2.8445052863      -13.3398332077
 H        -2.8757490282       -2.7363520764      -13.8605619194
 H        -4.1308619442       -1.9667414798      -14.8729598912
 H        -1.9741027704       -0.0229567806      -14.4051142967
 H        -2.8998188366        1.1291175391      -13.4621095878
 H        -3.8438147716        0.3113437604      -14.7289138973
 H       -10.3863370978        1.0593423486      -10.1306249288
 H        -9.5431932262        0.4434820988      -11.5124080388
 H        -8.6889575643        1.3268275651      -10.2503869015
 H        -9.4935522524       -0.5911617858       -7.8571610661
 H        -7.8652748187       -0.6380511882       -8.3454645806
 H        -8.7883976577       -2.2320052139       -8.2657954788
 H       -13.0647636152       -5.1967342288      -11.7897556335
 H       -13.8772854010       -6.7405554146      -11.6565894707
 H       -12.1957835652       -6.7817250383      -11.8830217735
 H       -15.1642259768       -5.8949371680       -9.5321104199
 H       -14.4811936095       -4.4219453131      -10.1201329615
 H       -14.0972316186       -4.9215378272       -8.4166368458
 H       -10.7840154389      -10.8262413542       -4.1772741151
 H       -10.6382761231      -10.9623355519       -5.9205248844
 H       -11.2256828825      -12.3629132822       -4.9812818660
 H       -14.4692533265      -11.2316957223       -6.2282963644
 H       -13.6785238521      -12.8256367581       -5.6463929613
 H       -13.0535324145      -12.0478921771       -7.1092384157
 H       -14.1034866941       -6.5015235277       -0.5836023025
 H       -12.6792950757       -7.1296246069        0.0286188729
 H       -13.7262418002       -6.4610445572        1.1640968980
 H       -14.3039741146       -9.9106312985        2.0001418309
 H       -13.9450213701       -8.3213926257        2.6722728752
 H       -12.6023107359       -9.2053343442        1.7655787897
 H       -19.6747187220       -6.7557312035       -0.3199458802
 H       -20.8353013719       -8.0059769068        0.0282254124
 H       -20.8228803534       -7.2608209626       -1.4299205816
 H       -20.8653887268       -9.8945103384       -1.9582571559
 H       -19.4066224988      -10.4841177568       -2.5453267524
 H       -20.2282652713       -9.0009936272       -3.2405067812
 Na      -16.4375041835      -10.6084819120       -2.3576562402
 Na        5.2473040351        4.2435046857      -14.5483978883
