232

 C        13.6586472824       -2.3021288224       -6.2102134505
 C        12.8520074104       -3.4157374141       -5.5919906177
 O        11.9193575831       -3.9234902197       -6.1504239656
 C        13.4329877059       -4.0969580229       -4.2268510695
 C        12.3649382521       -4.8484897400       -3.4680212097
 O        11.1939153894       -4.5025773615       -3.6040827341
 C        12.7526272864       -6.0938838089       -2.5805622151
 C        11.6407537904       -7.1739165214       -2.5279880687
 C        11.1309206144       -7.5661857978       -3.9508025991
 O        11.7266517539       -7.0808434152       -4.9081146814
 C        10.0161049976       -8.6964308443       -4.0307551865
 C         9.4342171893       -8.6463374871       -5.5719584417
 O         8.5163234211       -7.8893364858       -5.7402511545
 C        10.1606545869       -9.4050732866       -6.6500687289
 C         9.7151814235       -9.0463893835       -8.0167473768
 C        10.0882661415       -7.6800945702       -8.7136245602
 O        10.6972215075       -6.8382096095       -8.0534568022
 C         9.5051353600       -7.3375332005      -10.0918119199
 C         8.3808370624       -6.2280781775       -9.6965553942
 O         7.2092039311       -6.4983128764       -9.8445645530
 C         8.7693844677       -4.9036422890       -9.0326866077
 C         7.5722160715       -4.1917394690       -8.4640067432
 C         7.4965086427       -4.3884067782       -6.9452155825
 O         8.4706034111       -4.7022730163       -6.2802402458
 C         6.1168602374       -4.2729140948       -6.2496554916
 C         5.2430354952       -3.1774365691       -7.0722712960
 O         5.6030409535       -2.2938602548       -7.8015194969
 C         3.7453620846       -3.3178122253       -6.6927327824
 C         2.7905959053       -2.8180354542       -7.9025086835
 C         2.2514720426       -4.1251301191       -8.5618290236
 O         2.8743180286       -4.6890196622       -9.4559008069
 C         0.8238766048       -4.5289201495       -8.2250363010
 C        -0.0505174415       -3.8397210720       -9.4810796795
 O        -0.8108293967       -2.9403932090       -9.1913039559
 C         0.1689817009       -4.5332647320      -10.8185827786
 C        -0.4112553209       -3.6081137849      -11.9491139667
 C        -2.0031690056       -3.6760293253      -12.0491759204
 O        -2.7256170434       -4.6111778353      -11.7576742848
 C        -2.6422418700       -2.5177180892      -12.9272854539
 C        -4.1030955689       -2.5366561716      -12.6565250352
 O        -4.8972400942       -2.7963287077      -13.5279924977
 C        -4.7028082123       -2.2882217781      -11.2855617995
 C        -5.8149528603       -3.3331297415      -11.0911730747
 C        -6.9180271210       -3.0530079263      -11.9924761775
 O        -7.2861335175       -1.9003970649      -12.2058161000
 C        -7.8962195403       -4.3070725335      -12.4939457238
 C        -9.1856195845       -4.1482574232      -11.5943995296
 O        -9.1930868813       -4.7195273383      -10.4762414859
 C       -10.2208391571       -3.1512464023      -11.9384508043
 C       -11.3812081734       -2.9023277408      -10.8917117723
 C       -12.1050256222       -1.5570631957      -11.0291473899
 O       -11.5370409085       -0.6405932723      -11.6496839357
 C       -13.6590805329       -1.4320066742      -10.5596671413
 C       -13.8507463293        0.1121007427      -10.2677618653
 O       -13.4952476428        1.0011808172      -11.0121558723
 C       -14.5065097924        0.5891970360       -8.9210365495
 C       -14.5685081461        2.1384556493       -8.8063663704
 C       -13.3163567363        2.8414821848       -8.3206056496
 O       -12.5559918670        2.3404305411       -7.5617381469
 C       -12.9358212544        4.2118842875       -8.9606625260
 C       -11.8355896654        4.0100615194       -9.9708153401
 O       -12.0816104264        3.4969486958      -11.0527418076
 C       -10.4672745314        4.5873931460       -9.7686098349
 C        -9.5132816218        4.3400553746      -10.9460348949
 C        -9.3675732497        5.2983374382      -12.1295065706
 O        -9.6151480996        6.5037475798      -11.9846798218
 C        -8.8374548405        4.7905002021      -13.5510010710
 C       -10.2173278552        4.1200976402      -14.1183543376
 O       -10.2756373484        2.9516940143      -14.4050381474
 C       -11.4142832366        4.9771012452      -14.4407695905
 C       -12.7476378280        4.5113783638      -13.8626963815
 C       -13.3673477806        3.2170565323      -14.5385590505
 O       -12.7981218272        2.1734947588      -14.4388548366
 C       -14.5383199801        3.3628811860      -15.5464534523
 C       -15.8887023743        3.6448768787      -14.6163170765
 O       -15.8774935478        3.8413119981      -13.4137167938
 C       -17.3330565489        3.6341032787      -15.3716463243
 C       -18.1354633375        4.8573127965      -14.8641367177
 C       -17.4231589252        6.1350565544      -14.8326637814
 O       -16.2700215553        6.1880508302      -15.2742771079
 C       -18.3151256938        7.2642071804      -14.1711645750
 C       -18.5482413170        6.9166456389      -12.6303264940
 O       -19.6671447867        6.9080954558      -12.1883923771
 C       -17.4352238844        6.3353050248      -11.8072815160
 C       -17.6468374205        8.6370393349      -14.1388806873
 C       -19.7663092155        7.4729645409      -14.9825375361
 C       -14.1332992872        4.4205220840      -16.5832242955
 C       -14.7862395469        2.0914961921      -16.3663399456
 C        -8.4854032917        5.9293203716      -14.4834022431
 C        -7.6785334396        3.7399775746      -13.3113196875
 C       -14.1763018622        4.8717810138       -9.5682049165
 C       -12.4539820410        5.1393840339       -7.8131424791
 C       -14.5869232859       -1.8987372788      -11.8323541326
 C       -13.9273257101       -2.3453181273       -9.3129116779
 C        -8.2614480766       -4.1290410061      -14.0048365539
 C        -7.2088964278       -5.6323362209      -12.2600604329
 C        -2.0777326625       -1.1619938006      -12.4320614079
 C        -2.3589036374       -2.7920945472      -14.4691204812
 C         0.7454918943       -6.0674859491       -8.0808617457
 C         0.3350748977       -3.8645575537       -6.8347975975
 C         5.5963559657       -5.7210544406       -6.4710862273
 C         6.4080274447       -3.9272962094       -4.7276444733
 C        10.6311818925       -6.7812801712      -10.9977250464
 C         8.6719599268       -8.4293549772      -10.7803434488
 C        10.7583367339      -10.0706021759       -3.7683776242
 C         8.9373290055       -8.4869611559       -2.9074761575
 C        14.6006157197       -5.0070246117       -4.7971789702
 C        14.0036188189       -3.0171161118       -3.2450421269
 H        14.7278641760       -2.6504082011       -6.3679505330
 H        13.5017760257       -1.4062245053       -5.5259636850
 H        13.1574187698       -2.1053589797       -7.1750021261
 H        12.8844507831       -5.6271450513       -1.6248981311
 H        13.7109856032       -6.4460996871       -2.8235720065
 H        10.7352447962       -6.8292519843       -1.9665035650
 H        11.9720200230       -8.0996770908       -2.0481749394
 H        10.0666725087      -10.4743292512       -6.3514668738
 H        11.1884043781       -9.1883066794       -6.4765240801
 H         8.6304129205       -8.9961981007       -8.0151505080
 H         9.9875333440       -9.9033537473       -8.7547609778
 H         9.1342602288       -4.3976692305       -9.9392564673
 H         9.5788352757       -5.0483914814       -8.2759478334
 H         6.5445976860       -4.5516920809       -8.8547592201
 H         7.6303176867       -3.0931539329       -8.6059048173
 H         3.4296816230       -2.6565009821       -5.8609465157
 H         3.4400877734       -4.3479871768       -6.5162611375
 H         3.2895082393       -2.2833344183       -8.6719769280
 H         1.9881693206       -2.2134485718       -7.3990209005
 H        -0.4707343989       -5.4035371649      -10.7099276112
 H         1.1794361501       -4.6891289563      -10.9981811398
 H         0.0390319781       -3.9461147371      -12.9264471429
 H         0.0446053308       -2.6284726327      -11.6640365269
 H        -5.0794678330       -1.2062146888      -11.2138390568
 H        -3.9479385270       -2.3045422037      -10.4938638636
 H        -6.1914172600       -3.1968424238      -10.0120571161
 H        -5.4453791108       -4.3238862535      -11.1149461239
 H       -10.7255512207       -3.3808314838      -12.8992448716
 H        -9.6790046464       -2.1932233069      -12.3031150835
 H       -10.7660661682       -2.8083147695       -9.9174477710
 H       -12.1309369684       -3.7243632593      -10.8674669922
 H       -14.0696836219        0.2625328260       -7.9386584163
 H       -15.5141006952        0.1682054765       -8.9636602281
 H       -15.3524293861        2.4094981606       -8.1639376706
 H       -14.7820438168        2.5866984612       -9.7829197306
 H       -10.1829776488        4.3516146757       -8.7755255890
 H       -10.5883477526        5.6423747364       -9.6853621412
 H        -9.6807947850        3.3498034288      -11.4060816215
 H        -8.5444170233        4.3711798180      -10.4932930681
 H       -11.4352805084        5.0105791154      -15.5614319295
 H       -11.2890456245        6.0207251930      -14.1532184039
 H       -13.4577675392        5.3403307363      -14.0315906491
 H       -12.7142304349        4.3854374110      -12.7933702196
 H       -18.0470465661        2.8148718524      -15.1288042565
 H       -17.2090344488        3.6880644126      -16.4469987849
 H       -18.3598435378        4.5393743258      -13.8647809137
 H       -19.0384518179        4.9373305965      -15.4572266890
 H       -17.9905518863        6.1624004049      -10.8784954416
 H       -16.5893528045        7.0201702287      -11.7338658952
 H       -17.0895316459        5.4240786767      -12.1814983842
 H       -16.6151027894        8.6248599001      -13.8237248092
 H       -18.0842778277        9.3372040975      -13.3271570279
 H       -17.7851369828        9.1479215949      -15.0775958523
 H       -20.1436410893        6.5106232581      -15.2079638553
 H       -19.5608675501        7.9975935716      -15.8742223854
 H       -20.4156488018        8.0896233378      -14.3340979115
 H       -14.5817724446        4.3874088257      -17.5833199248
 H       -13.0084757446        4.3597708816      -16.6980738220
 H       -14.2884074543        5.4533017469      -16.1899671982
 H       -15.1065242233        2.1302361895      -17.3840017385
 H       -15.4790033078        1.4024592224      -15.8829631789
 H       -13.8943833060        1.5965025823      -16.5989275650
 H        -8.2544068836        6.8224217460      -14.0025521829
 H        -9.3907618209        6.3177242015      -15.0309283321
 H        -7.7884643808        5.6914841158      -15.2913984553
 H        -7.9812302100        2.7183211780      -13.1217120396
 H        -6.9478201505        4.0888139966      -12.5969868717
 H        -7.1299762856        3.6507360748      -14.2037044072
 H       -14.9924547981        4.7905779405       -8.9213142829
 H       -14.3688670948        4.2144530882      -10.5608495208
 H       -13.8869030329        5.8859254579       -9.9597833065
 H       -13.3600178690        5.5630568451       -7.3922448307
 H       -11.7019980743        5.9010568192       -8.0141742126
 H       -11.9890125560        4.5099434352       -7.1788163287
 H       -14.0605789602       -1.5879716055      -12.8187849581
 H       -15.4165790338       -1.1856161409      -11.8795054060
 H       -14.8533813474       -2.9223746631      -11.7171761756
 H       -13.6883398060       -3.3322112842       -9.5998548784
 H       -14.9951314665       -2.3058499780       -8.9660523823
 H       -13.3362945177       -2.0061851657       -8.4907159048
 H        -8.8976155976       -4.8472544585      -14.3629668342
 H        -7.2606229102       -4.0298058958      -14.4145243695
 H        -8.7078098244       -3.1505688335      -14.1121236841
 H        -7.6488712500       -6.4525480557      -12.7715067431
 H        -7.2470932472       -5.8909298482      -11.2050121984
 H        -6.1775457315       -5.5395327178      -12.4969304782
 H        -2.1357821973       -1.2013031666      -11.3225564053
 H        -2.6836327170       -0.3981536210      -12.8814716650
 H        -1.0784256156       -0.9475657215      -12.7373420886
 H        -1.2673478910       -2.7415830713      -14.7190598785
 H        -2.9032910125       -2.2467422493      -15.1500521932
 H        -2.5323626846       -3.8717642674      -14.5085892606
 H        -0.2846331834       -6.4058267821       -7.8128603780
 H         1.4412506702       -6.2822696429       -7.2541295289
 H         1.1926021784       -6.5407482581       -8.9530363994
 H        -0.1492978856       -2.9365328819       -7.1283192684
 H         1.0867377353       -3.6825413974       -6.0134027177
 H        -0.2220639564       -4.5700692903       -6.2184063551
 H         5.6620754038       -5.7990073196       -7.6069069068
 H         4.5858082952       -5.9192883111       -6.1880234376
 H         6.2497208751       -6.5796965511       -6.2337412094
 H         6.2401999742       -2.8604325329       -4.4517271952
 H         7.3625796406       -4.3155617391       -4.5352923466
 H         5.6376381416       -4.4650671134       -4.1939915887
 H        10.1645138556       -6.2764895615      -11.8246037257
 H        11.3087756460       -7.6439276693      -11.3123418763
 H        11.1153555442       -5.9275315952      -10.5623536421
 H         7.9385962944       -8.9252198847      -10.1011047740
 H         9.2987498098       -9.2770132383      -11.0399538926
 H         8.1882680340       -8.1229019036      -11.7155865754
 H        11.2222633065      -10.0363078956       -2.8256261730
 H        11.6013193790      -10.2816763046       -4.4074275535
 H        10.0369840390      -10.9189744126       -3.8526701484
 H         8.2365358547       -9.2817887247       -2.6481091500
 H         8.3328919861       -7.6100891557       -3.1373473781
 H         9.5125232679       -8.3765788874       -1.9943842740
 H        15.4965376838       -4.3692127470       -4.8531853122
 H        14.2936432990       -5.3474156423       -5.8222565558
 H        14.8113118882       -5.8017095064       -4.1034798287
 H        14.1908528651       -3.4187404511       -2.2377120281
 H        13.2446249752       -2.2784806919       -3.0869383530
 H        14.9226419186       -2.6776722022       -3.6797641888
 Na       10.4536166069       -5.8017059450       -6.0159307974
 Na      -11.6112008409        1.4899498578      -12.6189788851
