232

 C        12.9926488194       -1.9168779199       -6.0150241054
 C        12.5875775772       -3.3377213518       -5.6929085798
 O        12.2189135888       -4.1753461414       -6.5406214666
 C        13.0074301709       -3.8880638375       -4.2292362712
 C        12.0718255402       -5.0910437830       -3.7009208279
 O        10.8737183879       -5.0308476587       -3.9756753965
 C        12.6480357590       -6.1042538311       -2.7833387895
 C        11.5627101803       -7.1335621822       -2.5099406128
 C        11.3321265982       -7.8432117381       -3.8256989109
 O        12.1340219126       -7.9228566865       -4.7330635140
 C         9.9915251574       -8.6608482955       -4.0146707899
 C         9.4754000805       -8.4429362785       -5.4493668510
 O         8.8523339619       -7.3870039424       -5.6450027288
 C        10.0340734466       -9.2986073171       -6.7749061832
 C         9.3166234711       -8.8033217777       -8.0327553085
 C         9.8698405187       -7.4746953823       -8.6249666246
 O        10.7563975087       -6.7740169897       -8.0825047455
 C         9.2910404476       -7.0858877028      -10.0445938433
 C         8.2441940691       -5.9639848574       -9.7250723300
 O         7.0833243293       -6.2344856065       -9.8541097585
 C         8.8694426269       -4.5906642911       -9.3037823547
 C         7.7634100197       -3.7165228579       -8.5787878691
 C         7.6193864720       -4.1057980361       -7.0811842217
 O         8.6807015147       -4.1881303845       -6.4363207107
 C         6.2686695280       -4.4268041242       -6.6269586696
 C         5.2545350274       -3.1300314720       -7.0043722347
 O         5.6930351832       -2.1624057550       -7.6150343404
 C         3.8373376336       -3.3141496054       -6.5645916581
 C         2.8037216837       -2.6876533062       -7.5985642592
 C         2.1246485575       -3.8726156168       -8.3420998291
 O         2.8646951627       -4.4760397639       -9.0998719445
 C         0.6241560822       -4.3231040825       -8.2153525950
 C        -0.2510641263       -3.9598535895       -9.5018847039
 O        -1.0716966073       -3.0756614465       -9.5560801945
 C         0.0034816128       -4.8126367529      -10.6793761543
 C        -0.4598131837       -4.2068728797      -12.0138406688
 C        -1.8980361309       -4.1725451507      -12.3581376549
 O        -2.6191989815       -5.0718890691      -11.9811292524
 C        -2.4432655023       -2.9456822171      -13.1387202332
 C        -4.0134776141       -2.8844360022      -12.8595135912
 O        -4.8408632402       -3.1504644675      -13.7026812924
 C        -4.4744276055       -2.5048583897      -11.4826565743
 C        -5.7396502437       -3.2527032296      -11.0928815938
 C        -6.9831209141       -2.9057253193      -11.9807065513
 O        -7.4073836617       -1.7948469866      -12.0555605453
 C        -7.8498382623       -4.1046993598      -12.5442252274
 C        -9.1708547327       -3.9967081478      -11.6101921577
 O        -9.3884336908       -4.6443096895      -10.6402678542
 C       -10.2004208098       -3.0235828667      -12.2401415442
 C       -11.3911585325       -2.8413943864      -11.2241302229
 C       -11.8010654851       -1.3107212527      -11.1049519339
 O       -11.0140036888       -0.4790551704      -11.5147598231
 C       -13.2729103515       -1.0915217340      -10.7120524281
 C       -13.4134788965        0.3585569946       -9.9320124768
 O       -13.4448076811        1.3065648436      -10.6348613150
 C       -13.8539360296        0.4911793287       -8.4944219556
 C       -14.2560045317        2.0222718011       -8.2779368234
 C       -12.8946865834        2.7716259885       -8.3546419038
 O       -11.9998681097        2.3965362772       -7.6078744239
 C       -12.7250265253        4.2194757242       -9.0637030331
 C       -11.4977307435        3.9691356598      -10.0660483200
 O       -11.6972716669        3.3582189058      -11.0904626941
 C       -10.0119617386        4.3904521450       -9.6948994249
 C        -9.0310534489        4.0414033728      -10.8419453776
 C        -9.2765254742        5.0224333726      -11.9514883636
 O        -9.6712847592        6.1052196191      -11.6815582349
 C        -8.9362402982        4.6310048008      -13.4988470035
 C       -10.2223332640        3.9267289290      -13.8892791779
 O       -10.3527917679        2.7312347046      -13.6353868671
 C       -11.3255374558        4.6613697600      -14.5770894596
 C       -12.7203260576        4.3181347147      -14.0179351333
 C       -13.4711079612        3.0555955449      -14.4812482545
 O       -13.2708379281        1.8874186955      -14.0277155313
 C       -14.6609003925        3.2709405028      -15.4230276378
 C       -16.1142815724        3.6722412222      -14.4620109488
 O       -15.9330167095        3.9374072618      -13.3155464172
 C       -17.5466287795        3.5064829648      -14.9106157637
 C       -18.3456243303        4.6808436029      -14.3693220466
 C       -17.6888741604        6.1037076608      -14.6142788647
 O       -16.7666806862        6.3094606321      -15.3652533566
 C       -18.4981031433        7.3662327929      -13.9944884714
 C       -18.5368691950        7.0217514419      -12.4019154699
 O       -19.4058801340        6.2450925344      -12.0551926477
 C       -17.3090473664        7.2127161113      -11.5851176025
 C       -17.7282718136        8.6323346487      -14.2959010890
 C       -19.9896220986        7.4541015007      -14.4628032581
 C       -14.3474146912        4.4698034169      -16.4463899584
 C       -14.9909584874        1.9637669038      -16.1621682776
 C        -8.6117047003        5.9161745205      -14.3398124590
 C        -7.7583899797        3.5662544640      -13.6854699764
 C       -13.9773816216        4.5010298457       -9.9582679660
 C       -12.4196659064        5.3452891106       -8.0308588392
 C       -14.0659113658       -1.0680304246      -12.0831869412
 C       -13.7669750026       -2.2533332491       -9.7879970958
 C        -8.1442495102       -3.8797079139      -14.0169350550
 C        -7.1458226638       -5.4877564173      -12.4066637560
 C        -1.6816158016       -1.5713025310      -12.8077636227
 C        -2.3313511152       -3.1730054828      -14.7222629424
 C         0.6890367557       -5.9335208600       -8.1136954590
 C        -0.0031833967       -3.6698909873       -7.0109132394
 C         5.6856925606       -5.5773021375       -7.3717053608
 C         6.3047298628       -4.6508538525       -5.0311043162
 C        10.5167654684       -6.6854510305      -10.8961961505
 C         8.5325913931       -8.2169873097      -10.7712356527
 C        10.3390020699      -10.1412822690       -3.7173354139
 C         8.8058166660       -8.3196671608       -3.0949909692
 C        14.4913942889       -4.2649153211       -4.3867136283
 C        12.8257974271       -2.7992322318       -3.1932033471
 H        13.3744471478       -1.3741770360       -5.1229583706
 H        12.1238563755       -1.3639916689       -6.4668670003
 H        13.7638503145       -2.1487596161       -6.8291478519
 H        12.9375503148       -5.5543268480       -1.8784422371
 H        13.5663354738       -6.4663641950       -3.1890736798
 H        10.6507656053       -6.6941212281       -2.2148412396
 H        12.0643095553       -7.8701230362       -1.8475895255
 H         9.9356019161      -10.3880634137       -6.7491010560
 H        11.0853060973       -9.0771314564       -6.9377359008
 H         8.2315529746       -8.6077884947       -7.8520640041
 H         9.4686803130       -9.6423233978       -8.7269355123
 H         9.1780777762       -4.0419300067      -10.1744769820
 H         9.7112533377       -4.8930371737       -8.6315107231
 H         6.7883377660       -3.6900637146       -9.1477971026
 H         8.1981605684       -2.6810539510       -8.6474737108
 H         3.7602868217       -2.8359765011       -5.5646088363
 H         3.5765579640       -4.3787965465       -6.5079243141
 H         3.4407514934       -2.0835869115       -8.2934799967
 H         2.0664976920       -2.0554160878       -7.1440789515
 H        -0.5763965896       -5.6656001576      -10.4479133333
 H         1.0807149052       -4.9553334915      -10.6842938698
 H         0.0267610021       -4.8103876101      -12.8002371410
 H         0.0696380428       -3.2100304267      -12.0133094840
 H        -4.6962535307       -1.4109641104      -11.3414073748
 H        -3.5718234078       -2.7718234926      -10.8389981892
 H        -6.0141106778       -2.8001975492      -10.1536411793
 H        -5.6804392495       -4.3470200853      -10.9312207557
 H       -10.6572786010       -3.2997566819      -13.2775132853
 H        -9.7088694118       -2.0369783708      -12.3795167068
 H       -11.2105202250       -3.1755834441      -10.1777734413
 H       -12.3266252523       -3.2654043663      -11.7266413463
 H       -13.0157924069        0.2879957375       -7.8137387162
 H       -14.7555351282       -0.0699192358       -8.3006638265
 H       -14.6720828916        2.1838547779       -7.3006069460
 H       -15.0204590752        2.2748100126       -8.9697941911
 H        -9.7706386316        3.7936986147       -8.8735010565
 H        -9.9922374225        5.4206678690       -9.4134801666
 H        -9.0067376674        2.9903748417      -11.0730172225
 H        -8.0637384331        4.1836602961      -10.4399541037
 H       -11.2020326006        4.3880099976      -15.6378689932
 H       -11.2106842514        5.7615860175      -14.5379414108
 H       -13.4502004733        5.1338005593      -14.2087299495
 H       -12.6392690425        4.1495748939      -12.9503044090
 H       -17.9217395068        2.4840879772      -14.7788964412
 H       -17.6402481084        3.6246951731      -16.0140381406
 H       -18.5313868516        4.5888045961      -13.3049140456
 H       -19.2975134192        4.6688866861      -14.8873202680
 H       -17.6354343963        6.6033023163      -10.7685695158
 H       -17.0658931963        8.2037571088      -11.3051381738
 H       -16.3822481759        6.8138545051      -12.0500976638
 H       -16.7557851383        8.5927301922      -13.7469199752
 H       -18.3099800378        9.4841617430      -14.1121601077
 H       -17.3805257360        8.8815924174      -15.3517415380
 H       -20.6626995356        7.1311334451      -13.7024989581
 H       -19.9762857828        6.9850453790      -15.4051408476
 H       -20.2786640142        8.4681409623      -14.6493746896
 H       -15.1483581558        4.3257681477      -17.1766859668
 H       -13.3208880958        4.3549148067      -16.8088106093
 H       -14.4410127400        5.5036670648      -16.0863600036
 H       -15.9032428769        2.0131041129      -16.7442743895
 H       -15.0581242119        1.0402889628      -15.6061404445
 H       -14.1676059722        1.6439499540      -16.8571777360
 H        -7.5880115682        5.9175000779      -14.7920411070
 H        -8.5884273876        6.8056901272      -13.7404978328
 H        -9.1179119415        6.1516890992      -15.2441141549
 H        -7.9030514388        2.8102118469      -12.9594444088
 H        -6.6961171797        3.8281185882      -13.6827294065
 H        -7.9780086840        3.0877348404      -14.6435050648
 H       -14.9054233794        4.7471548146       -9.3559792798
 H       -14.0075898379        3.8123128337      -10.7111256188
 H       -13.9330727105        5.5120936786      -10.2981038384
 H       -13.3823845397        5.6570778188       -7.7433517993
 H       -11.9183317385        6.1431422170       -8.5160047427
 H       -11.8824074446        5.0301386466       -7.0715602889
 H       -14.0411918284       -0.0945752679      -12.5079629587
 H       -15.1187623980       -1.4140794689      -11.8389473196
 H       -13.7393478374       -1.8952560539      -12.7887384228
 H       -13.9360247999       -3.2572629890      -10.2219790552
 H       -14.6683657509       -1.9312961949       -9.3623671763
 H       -13.0295733248       -2.4261509378       -9.0227453555
 H        -8.9277289631       -4.5806592766      -14.3092132129
 H        -7.2086557943       -4.0974113588      -14.4480014342
 H        -8.2889947549       -2.8320588009      -14.1446221093
 H        -7.6854768823       -6.0823998886      -13.0725700111
 H        -7.2030917161       -5.7590368345      -11.3925769752
 H        -6.0792335787       -5.4817062076      -12.6489379202
 H        -1.0601495516       -1.3877409562      -13.6236171021
 H        -1.0507906933       -1.5378817850      -11.9254243155
 H        -2.3808972370       -0.7436901167      -12.7363527468
 H        -1.4135479309       -2.7958165562      -15.0028910787
 H        -3.1094520429       -2.5322304247      -15.2059355565
 H        -2.5545654694       -4.1283835025      -15.1493333155
 H        -0.2036899270       -6.4215730146       -8.3726298430
 H         0.9411522367       -6.1477387213       -7.0782410883
 H         1.5472567784       -6.3361276233       -8.6971053742
 H        -0.3458583915       -2.5857387542       -7.0447140925
 H         0.7637564569       -3.6918411511       -6.2009534280
 H        -0.9106483329       -4.1729620766       -6.6023630805
 H         5.7753569143       -5.5660817728       -8.4430165436
 H         4.5937783209       -5.7488373824       -7.1809461115
 H         6.2644632724       -6.5199013768       -7.1425266296
 H         6.6508160857       -3.7318175530       -4.6541996037
 H         6.9950838373       -5.5152955888       -4.9485133245
 H         5.3652277075       -4.8681087090       -4.6044865971
 H        10.0642198776       -6.3589422933      -11.8701933646
 H        11.2292008474       -7.4201853612      -11.2205218981
 H        11.0933874300       -5.8794870877      -10.3947238028
 H         7.6107919020       -8.4549457819      -10.2836802999
 H         9.0999991022       -9.1082944666      -10.9846901485
 H         8.0970841854       -7.8953400963      -11.7241521076
 H        10.5228474030      -10.3532077916       -2.6414365332
 H        11.2395163824      -10.5315028982       -4.2694083981
 H         9.4768508086      -10.7198959434       -4.0171117590
 H         8.1608939208       -9.1827131471       -3.2801593099
 H         8.2482638811       -7.4448439770       -3.3805911364
 H         9.1149537488       -8.3153960640       -2.0185316542
 H        14.8435264949       -3.7795463613       -5.2954408772
 H        14.5808196512       -5.3427040598       -4.5744357033
 H        15.1813729231       -3.9606933115       -3.5801777627
 H        12.7902826084       -3.2803999076       -2.2111511896
 H        11.7958239011       -2.5243941751       -3.3859716559
 H        13.5445792140       -2.0146259418       -3.0961789860
 Na       10.5217685283       -5.7525095726       -6.1713865216
 Na      -11.7143250313        1.3786611943      -12.3563330950
