232

 C        12.9019204621       -1.9521983982       -6.0091529306
 C        12.6083891530       -3.3677426738       -5.7569932257
 O        12.2529142455       -4.1138453656       -6.6757660548
 C        12.7916828819       -3.8078323743       -4.2234706255
 C        11.9772312349       -5.0469642325       -3.7080322254
 O        10.8174412994       -5.0926027926       -4.0328008760
 C        12.6552303364       -6.1117277098       -2.8542926624
 C        11.6300365058       -7.2080097624       -2.5046601112
 C        11.3243778232       -8.0063831310       -3.8130146897
 O        12.1187998425       -7.9863273939       -4.7193822753
 C         9.9492299337       -8.7917451914       -4.0224737168
 C         9.5821110516       -8.3674501309       -5.4644079945
 O         9.0373674727       -7.2817844398       -5.6294254177
 C         9.8931240365       -9.2361311224       -6.6451795280
 C         9.3063644758       -8.7843879519       -8.0014920696
 C         9.8686559968       -7.5219653361       -8.6750478812
 O        10.6082171226       -6.7566508389       -8.1240702468
 C         9.3319374624       -7.0899135849      -10.0531645099
 C         8.3165938760       -5.8986199222       -9.7020595999
 O         7.1142877374       -6.0680799026       -9.8286465742
 C         8.8564025718       -4.5696505869       -9.3143330278
 C         7.7745268573       -3.7137734189       -8.7256090672
 C         7.6939350601       -4.1081279457       -7.2108026166
 O         8.7672893940       -4.2922363792       -6.5968318787
 C         6.2296617539       -4.3359170838       -6.6879149573
 C         5.2580008908       -3.1062472077       -6.8928012151
 O         5.5802210094       -2.1930246761       -7.5725283729
 C         3.7607044827       -3.3647183999       -6.5102822433
 C         2.7139382969       -2.6960471084       -7.5064709347
 C         2.1139410817       -3.8398271563       -8.3796263493
 O         2.8048227816       -4.4717452877       -9.1490718869
 C         0.6598088861       -4.2606261832       -8.1326120002
 C        -0.2105032226       -3.9206758149       -9.5080427950
 O        -1.0466362322       -3.0110987188       -9.5558617020
 C         0.1467689111       -4.8727535879      -10.7936269207
 C        -0.3368995597       -4.3902950989      -12.1790486251
 C        -1.9109054512       -4.3050872777      -12.2971462651
 O        -2.7092083202       -5.1489087649      -11.9932330112
 C        -2.4359874822       -2.9850438673      -13.2071811970
 C        -3.9539372502       -2.9521800552      -12.8828235944
 O        -4.7631642121       -3.3316407998      -13.7004735023
 C        -4.4541520555       -2.4598754854      -11.4429872582
 C        -5.6430853763       -3.2550455773      -11.0732389335
 C        -6.9172256840       -2.9034255561      -11.8983671115
 O        -7.2173392949       -1.7099186911      -12.0336001762
 C        -7.7983212384       -4.1323855140      -12.5649654027
 C        -9.0783132681       -4.0648010539      -11.7506251255
 O        -9.3679358336       -4.6417970862      -10.7364988642
 C       -10.0517250539       -2.9386101925      -12.2730773009
 C       -11.3426386807       -2.8355710927      -11.3779724235
 C       -11.7640359255       -1.3673236463      -11.1633898127
 O       -11.0327049435       -0.4684672580      -11.3535673818
 C       -13.3165982666       -1.0499597974      -10.6674855161
 C       -13.5485856781        0.2894287586      -10.0426895281
 O       -13.3343587636        1.3510856306      -10.6421031399
 C       -13.6856462261        0.3854302003       -8.5102094576
 C       -14.0543413496        1.9378034977       -8.0950997083
 C       -12.7813360931        2.8729025325       -8.2286492025
 O       -11.7433408761        2.4665726431       -7.8078379330
 C       -12.6523658674        4.2369349681       -9.0819421153
 C       -11.3658078086        3.9297746469      -10.0206598789
 O       -11.5648183417        3.5545881593      -11.1605091549
 C        -9.8914376450        4.2634265154       -9.5378831402
 C        -8.9626496572        3.9832947240      -10.7626893039
 C        -9.1635771438        5.0638939662      -11.8747776994
 O        -9.7209649867        6.1146325475      -11.5956553176
 C        -9.0006310661        4.6298627090      -13.4358952458
 C       -10.2900031672        3.8170390553      -13.9107043846
 O       -10.3482364530        2.6376564257      -13.5159005325
 C       -11.4414150860        4.4633391812      -14.6968512558
 C       -12.8058979933        4.2155161208      -14.0195760201
 C       -13.6004207457        2.9924983793      -14.4793066529
 O       -13.4122078077        1.8665291676      -14.0326862840
 C       -14.7897462563        3.2450289614      -15.4715150872
 C       -16.0143397453        3.6595451685      -14.5023604762
 O       -15.7629985793        4.0699117279      -13.3607540008
 C       -17.4524582043        3.6252058221      -15.0075690936
 C       -18.4014574775        4.7214369245      -14.2994937278
 C       -17.9039361415        6.0940477566      -14.6475339132
 O       -16.9013850348        6.2012778112      -15.2867675805
 C       -18.5273403905        7.3088341741      -13.8983252203
 C       -18.4558432596        6.8846683158      -12.3322739897
 O       -19.3104775679        6.1579210444      -11.8700140480
 C       -17.3018751845        7.5140249690      -11.5696032688
 C       -17.7150643470        8.6695856696      -14.1708701525
 C       -19.9873276109        7.3366957472      -14.5694875907
 C       -14.4547765179        4.4565049320      -16.3409981107
 C       -15.1253632665        1.9221661821      -16.1270072811
 C        -8.6683664639        5.8822446763      -14.2628592353
 C        -7.8274957818        3.5593146626      -13.5556863337
 C       -13.7968362320        4.6098030628       -9.9655293905
 C       -12.4409729371        5.4135355601       -8.1012925645
 C       -14.0970553627       -0.9956444004      -12.0134412387
 C       -13.9073899158       -2.1658103302       -9.7952963804
 C        -8.1221167908       -3.8754940448      -14.0941977936
 C        -7.0646108702       -5.4725038771      -12.3911472800
 C        -1.7744873578       -1.6782293450      -12.8649650773
 C        -2.3033101874       -3.3185130487      -14.6905048151
 C         0.5476256509       -5.8093883409       -8.1570948754
 C        -0.0564369215       -3.6397722931       -6.8690461113
 C         5.6205697184       -5.4569206927       -7.5296845904
 C         6.1894067300       -4.7135751745       -5.1469507760
 C        10.5158452651       -6.5390862850      -10.9108210171
 C         8.5332732789       -8.1778868599      -10.6960195235
 C        10.2585974722      -10.3076055967       -3.8025877345
 C         8.7951305311       -8.1905222403       -3.0750357710
 C        14.3999719741       -4.1711375210       -4.2012696405
 C        12.5548234355       -2.6765935523       -3.1674283542
 H        13.0546789170       -1.3629268973       -5.0469678242
 H        11.9617056822       -1.5972438546       -6.4328899821
 H        13.6726174222       -1.9265059499       -6.7299622055
 H        13.1592030708       -5.6995668282       -1.9726379021
 H        13.5570708764       -6.5198224314       -3.4968904050
 H        10.7178957079       -6.7482939626       -2.2290947025
 H        12.1658571588       -7.8106032211       -1.8095689537
 H         9.4072145814      -10.1875329033       -6.4729218994
 H        10.9799160048       -9.4466164489       -6.8226976652
 H         8.2037418324       -8.5572101284       -7.8885034482
 H         9.4724709248       -9.6802282054       -8.5355156276
 H         9.2350223962       -4.0464858443      -10.1764358473
 H         9.6105171289       -4.8282610554       -8.6344960955
 H         6.8705285042       -3.8858366554       -9.2154998575
 H         8.0510260726       -2.6568032314       -8.9713243323
 H         3.6900163769       -2.8068635154       -5.6046283905
 H         3.4315474097       -4.3849385249       -6.2982600479
 H         3.3777655935       -2.0536370858       -8.1674012690
 H         2.0110505586       -2.0466933120       -7.0044137755
 H        -0.4225712844       -5.7486471377      -10.4892472746
 H         1.2750084601       -4.9793054478      -10.7691296608
 H        -0.0286628568       -5.0695590558      -12.9429055243
 H         0.1989467154       -3.5217996465      -12.3347974608
 H        -4.8001233615       -1.3782665993      -11.5923364298
 H        -3.6065439847       -2.4308008484      -10.6424365588
 H        -5.8145862549       -3.2980524602      -10.0598733713
 H        -5.4585002145       -4.2853281616      -11.4157501674
 H       -10.3955531755       -3.0098972919      -13.3329944302
 H        -9.4409593023       -2.0068130757      -12.1623499259
 H       -11.0256674808       -3.0551901848      -10.3265595407
 H       -12.1868988426       -3.4591844785      -11.7515154800
 H       -12.7231264396        0.2372181751       -8.1047880236
 H       -14.4980131830       -0.2242275694       -8.1025418983
 H       -14.4123485090        1.9395281959       -7.0584001903
 H       -14.8931773034        2.2649643150       -8.6445402886
 H        -9.6542588306        3.7044349242       -8.5816074131
 H        -9.9129025513        5.2996935617       -9.4115788236
 H        -9.0867215321        3.0622645670      -11.1797175831
 H        -7.9636770331        3.8972163391      -10.3827624226
 H       -11.3931709892        4.1873517461      -15.7211266933
 H       -11.3379753362        5.5420482033      -14.6645095652
 H       -13.4645176211        5.0621251144      -14.1600130972
 H       -12.6403227373        4.0149600133      -12.9225138145
 H       -17.8494785482        2.6044060711      -14.7166991496
 H       -17.5608030821        3.5110861647      -16.1109978332
 H       -18.2399563738        4.5549336220      -13.2270343758
 H       -19.4471617104        4.5406658962      -14.4872085076
 H       -17.2774165677        7.1451965911      -10.5722974083
 H       -17.3805407575        8.6033474635      -11.5468156474
 H       -16.4063123279        7.3175443489      -12.1512635520
 H       -16.6884439491        8.6160675248      -13.7764017291
 H       -18.2706308269        9.5836840350      -13.9834257957
 H       -17.4286602766        8.8145754926      -15.2169524061
 H       -20.6903944519        6.7235704667      -14.1486779475
 H       -19.7063643301        7.1766668355      -15.5442647336
 H       -20.4858721970        8.3471702034      -14.5923872918
 H       -14.9165282027        4.3857376502      -17.3754799755
 H       -13.3609486587        4.5911047933      -16.2991998495
 H       -14.8684548218        5.3866143245      -15.8920578615
 H       -15.7388922976        1.9306353588      -17.0429190628
 H       -15.5207052408        1.1487547695      -15.5558108757
 H       -14.1814628234        1.4646522921      -16.3388457112
 H        -7.6766553547        5.9276419508      -14.7451831688
 H        -8.7769134940        6.7978260681      -13.7577593169
 H        -9.2155499431        6.0270888483      -15.1675928118
 H        -8.0822524472        2.6846128897      -12.9581389469
 H        -6.8849913401        3.8772954638      -13.2406905935
 H        -7.7374716614        3.2589947251      -14.5992710401
 H       -14.6442810773        4.7210623948       -9.4379521574
 H       -13.8066906974        3.8497042723      -10.8310011621
 H       -13.7176856257        5.5740632240      -10.2708333277
 H       -13.3611690028        5.9646688638       -8.0079042246
 H       -11.6924246649        6.0981736802       -8.4214877537
 H       -12.2443952062        4.9927142309       -7.1166422239
 H       -13.7742668575       -0.1369596448      -12.5769778056
 H       -15.1646266913       -1.0283060310      -11.8057959931
 H       -13.9609232861       -1.9485582612      -12.6301109891
 H       -14.0820066568       -3.0522131712      -10.3913305062
 H       -14.8412131075       -1.8388598306       -9.4172860805
 H       -13.2723538133       -2.5670899250       -8.9895630271
 H        -8.8402175165       -4.6659804446      -14.3777366647
 H        -7.2199601393       -4.0013878630      -14.6423793473
 H        -8.4482876106       -2.9044569326      -14.0785370161
 H        -7.4994963075       -6.1826125898      -13.0994250197
 H        -7.0462217004       -5.7448836779      -11.3594577100
 H        -6.1009338874       -5.3119095100      -12.7535111495
 H        -1.4613055503       -1.0640198782      -13.7356261165
 H        -0.8605405495       -1.8710531112      -12.2977780403
 H        -2.4414936751       -1.0277775311      -12.2122548833
 H        -1.2849428394       -3.1045274221      -15.0734978028
 H        -3.0326197313       -2.7660172429      -15.2497891995
 H        -2.6599056001       -4.2321716044      -14.9025971497
 H        -0.4778067568       -6.1865724299       -8.4699931163
 H         0.7947533880       -6.2270468473       -7.1511370583
 H         1.3016979189       -6.1864226943       -8.8443117285
 H        -0.6425065727       -2.7159965803       -6.9945992785
 H         0.7068782602       -3.3406523044       -6.2528241120
 H        -0.7717333821       -4.2418601079       -6.2860925452
 H         5.5620925797       -5.2020640306       -8.5714796430
 H         4.5842102552       -5.8462368753       -7.3205732868
 H         6.3211445289       -6.2829270475       -7.5326401740
 H         6.0938668398       -3.7948129625       -4.6074171181
 H         7.0859899345       -5.2843600820       -5.0054078963
 H         5.3136255025       -5.4236756472       -4.9686014332
 H        10.2140860892       -6.2535880380      -11.9194159095
 H        11.3007160918       -7.2939787595      -11.1395385042
 H        11.0887074725       -5.7986581587      -10.3004776523
 H         7.6909088644       -8.4602427387      -10.0888758602
 H         9.0766190276       -9.0782586770      -11.0749798732
 H         7.9624950794       -7.8131195605      -11.5335248254
 H        10.6680225716      -10.4388796265       -2.7509951909
 H        11.0090632409      -10.6977570230       -4.4875945052
 H         9.3973790684      -10.9197504562       -3.8494397853
 H         7.9928031043       -8.9211325017       -2.9516971958
 H         8.3785214947       -7.2696786581       -3.5494441862
 H         9.2440040621       -7.9034529148       -2.1572384164
 H        15.0046777542       -3.4166655746       -4.7648889292
 H        14.4958892026       -5.1123304569       -4.7425933345
 H        14.8351295670       -4.3271885727       -3.1650464248
 H        12.6555025270       -3.1687951657       -2.2406109683
 H        11.5365514750       -2.3111058764       -3.2433954344
 H        13.3551737117       -1.8777483307       -3.1460356430
 Na       10.5852461853       -5.6716770537       -6.2217984158
 Na      -11.8880687036        1.4211497027      -12.3474739505
