232

 C        12.8062729135       -1.7781350695       -5.9048911425
 C        12.4619584737       -3.2009829727       -5.5436556056
 O        12.3661784983       -4.0913244964       -6.3487516121
 C        12.5624395949       -3.5486225671       -4.0300395148
 C        11.9990644091       -4.9834466857       -3.8004531848
 O        10.8642955815       -5.1555744818       -4.1433900493
 C        12.7697771191       -6.0712559238       -3.0189678941
 C        11.7770296180       -7.2879258355       -2.7068600925
 C        11.4004241873       -8.1908070849       -3.9131480677
 O        12.1338225524       -8.5629950707       -4.7847946158
 C         9.9088244891       -8.7370396422       -4.1191492958
 C         9.3931523640       -8.2442409233       -5.4627323803
 O         8.8039339156       -7.1920521348       -5.5710571168
 C         9.6904803878       -9.0640407168       -6.7266342143
 C         9.0483854857       -8.5703496960       -8.0316816311
 C         9.7918974867       -7.4203477870       -8.6918311230
 O        10.7817642254       -6.9548860322       -8.2336921878
 C         9.3710972702       -7.0610956888      -10.0901068978
 C         8.4161512540       -5.8016415533      -10.0634204308
 O         7.2236065617       -5.9986658991      -10.2275277369
 C         8.8252505080       -4.3691049742       -9.5601186712
 C         7.6627204134       -3.6597940370       -8.9217648697
 C         7.3940600403       -4.1875953400       -7.5071019497
 O         8.3005969327       -4.4762504160       -6.7580052931
 C         5.9408072886       -4.3848657730       -6.9059090717
 C         5.0864715324       -3.0564538002       -7.1010959132
 O         5.6299509875       -2.0928999681       -7.5456792940
 C         3.6831466967       -3.2207278750       -6.6133412303
 C         2.4831564395       -2.5883822135       -7.3665187906
 C         1.9724306834       -3.7446684871       -8.2646208425
 O         2.6774690338       -4.3658178127       -9.0155518377
 C         0.4244420757       -4.2124468714       -8.2379330876
 C         0.0357595797       -4.0239798589       -9.6830677035
 O        -0.5683413952       -3.0331170216      -10.0522560841
 C         0.2717673968       -5.1864883392      -10.7732321748
 C        -0.0830793525       -4.4873716642      -12.0978182554
 C        -1.6144715139       -4.3793974180      -12.1847074268
 O        -2.3309671207       -5.0991609993      -11.4942580960
 C        -2.1966690402       -3.3483643508      -13.1850243142
 C        -3.8160237450       -3.3615189349      -12.8647845387
 O        -4.6337064438       -3.7600739300      -13.6474095823
 C        -4.2464075750       -2.8069093583      -11.4669941513
 C        -5.5861554554       -3.3412310704      -11.0190411612
 C        -6.6847913032       -2.9106502068      -12.0169884438
 O        -6.9584924437       -1.6924414524      -12.2495140709
 C        -7.6915732682       -3.9657373394      -12.5538716241
 C        -9.0867093628       -3.8042618220      -11.8221892198
 O        -9.5419258523       -4.7204968549      -11.1117720624
 C        -9.8977611662       -2.5350357832      -12.0550392671
 C       -11.1471000911       -2.5919192363      -11.2465156556
 C       -11.7810732559       -1.2613248808      -11.1674619776
 O       -11.2676033616       -0.1943894444      -11.4665203536
 C       -13.2565154038       -1.0678257407      -10.5949834630
 C       -13.3782218275        0.2524528339       -9.8819294014
 O       -13.5622185388        1.2924563968      -10.5804693669
 C       -13.2855496540        0.3726173911       -8.3871181614
 C       -13.4428789063        1.8259785423       -7.8222226489
 C       -12.1908820851        2.6270627461       -8.1204942226
 O       -11.1185264478        2.2469868926       -7.7185724543
 C       -12.2505418138        3.9885456720       -8.9829672623
 C       -11.1367223307        4.0614516444      -10.0348155585
 O       -11.4307158888        3.9704028733      -11.2290157300
 C        -9.6486589075        4.3233098308       -9.4738494842
 C        -8.6790233101        4.1294899992      -10.6153240292
 C        -9.1630141033        4.9608039449      -11.8020666837
 O        -9.5942984148        6.0839470075      -11.5762934965
 C        -8.9575826472        4.5003524315      -13.3460700991
 C       -10.1879164033        3.5220181656      -13.5735886369
 O       -10.0483560165        2.3148496894      -13.3108321965
 C       -11.3797889383        3.9623347727      -14.4849560977
 C       -12.8906919833        3.9881600214      -14.0492027313
 C       -13.7831192095        2.8031976097      -14.5867132418
 O       -13.4954579896        1.6782811180      -14.3280771173
 C       -15.0281193258        3.1133636293      -15.5000875324
 C       -16.1073631659        3.6839998250      -14.5648892656
 O       -15.7650426254        4.3660646495      -13.5905459881
 C       -17.6625979890        3.5713872183      -14.8313089168
 C       -18.5728230249        4.6985558240      -14.2099138330
 C       -17.9253406795        6.1137293809      -14.5069413544
 O       -16.9987688856        6.2394038472      -15.3118473917
 C       -18.6896590514        7.3085605961      -13.6531335995
 C       -18.3229475447        7.1101167992      -12.1697413595
 O       -18.7569045910        6.0672161287      -11.6234807788
 C       -17.8582521578        8.2894925883      -11.3887648520
 C       -18.2042718891        8.6092343696      -14.2563037137
 C       -20.1857527705        7.2645645422      -13.7051604094
 C       -14.4645243657        4.1271613875      -16.5571159827
 C       -15.4535715208        1.8457796855      -16.1673156095
 C        -8.9312435294        5.7448387428      -14.2458089775
 C        -7.6628531958        3.6655810036      -13.5472303302
 C       -13.7247381575        4.3102648791       -9.6289558075
 C       -11.9816788805        5.1971344930       -7.9943183641
 C       -14.1573123541       -0.9730460448      -11.8654141156
 C       -13.8575115677       -2.1312624390       -9.7704671915
 C        -7.8768806369       -3.6816984759      -14.2119072877
 C        -7.1125627101       -5.4154300199      -12.4240338427
 C        -1.6018106241       -1.8927125245      -12.9574206245
 C        -2.0899863463       -3.8344304743      -14.7340712397
 C         0.4911235837       -5.7306589693       -7.8113196128
 C        -0.4964260030       -3.4291250913       -7.2803315328
 C         5.2984708855       -5.5428657663       -7.7822976215
 C         5.9260657157       -4.7787502999       -5.4074170887
 C        10.6725686562       -6.5837370555      -10.8012922277
 C         8.5783256658       -8.1147542795      -10.9079597715
 C        10.0311588614      -10.2299614624       -4.0424894702
 C         8.9061328055       -8.1794207998       -3.1134064920
 C        14.0751322562       -3.3084980437       -3.5805599409
 C        11.6813014074       -2.5760730506       -3.2267353585
 H        13.4420127689       -1.2599779498       -5.1482830686
 H        11.7805177041       -1.2811952758       -5.7486941599
 H        13.1339782424       -1.7451350121       -6.9687501350
 H        13.1677274750       -5.6175216155       -2.1585253665
 H        13.6478596366       -6.3838945579       -3.6805447135
 H        10.8492434352       -6.8535439404       -2.3833631049
 H        12.2626977683       -7.9861109861       -2.1046769936
 H         9.4771896671      -10.0803960967       -6.6043784167
 H        10.7731037635       -8.8948719542       -6.9008840366
 H         8.0216084199       -8.2820995171       -7.6465253916
 H         8.9702498056       -9.4174273292       -8.6973118784
 H         9.2513970093       -3.7994247860      -10.4325329988
 H         9.6272360218       -4.4175188010       -8.8283474833
 H         6.7411810938       -3.7174180884       -9.4901349612
 H         7.7709840971       -2.5209968242       -8.7995440696
 H         3.5908496202       -2.7815707167       -5.6283335790
 H         3.4110792151       -4.2606349447       -6.3728411078
 H         2.8283813997       -1.6381223989       -7.8229281779
 H         1.7514879605       -2.2815751492       -6.6347790952
 H        -0.4422802273       -5.9775770643      -10.6964777381
 H         1.2944956718       -5.5927477039      -10.7686250906
 H         0.4521003883       -5.1377431202      -12.8371295448
 H         0.3740674506       -3.5472568583      -12.2658378231
 H        -4.3355171015       -1.7056759347      -11.7468200960
 H        -3.4554208825       -3.0343509415      -10.6836707232
 H        -5.8213761371       -2.8934171277      -10.0740969459
 H        -5.6163281806       -4.4253364240      -10.8331830238
 H       -10.1270362033       -2.6137605438      -13.1423458794
 H        -9.1663431486       -1.6883620762      -11.7908177473
 H       -10.8927863641       -2.9989962179      -10.2071343802
 H       -11.8171575884       -3.3614011025      -11.7266470805
 H       -12.3246208963        0.0825051767       -8.0694262318
 H       -14.1353809709       -0.1845711073       -7.9378750584
 H       -13.4119923892        1.7361339643       -6.7421897772
 H       -14.4045198874        2.2025470137       -8.0195987218
 H        -9.4902254320        3.5378373099       -8.7351468131
 H        -9.5754580174        5.2757809375       -9.1467044883
 H        -8.5752886816        3.1220107273      -10.7747205968
 H        -7.6709290061        4.4762926287      -10.4385872338
 H       -11.3201458098        3.2400587911      -15.3094871089
 H       -11.1889854280        4.9398568672      -14.9469608702
 H       -13.3176292875        4.9266937204      -14.3452833180
 H       -12.9030609724        3.9880735623      -12.9148434981
 H       -17.9729560258        2.5629686156      -14.4836164389
 H       -18.0314832782        3.4435818779      -15.8666157177
 H       -18.8978884104        4.5310927235      -13.1888933445
 H       -19.4675509486        4.6809106742      -14.8240857435
 H       -17.9502006671        7.9438999922      -10.3642247967
 H       -18.5453967310        9.1569776741      -11.3739133729
 H       -16.8539243115        8.5972058244      -11.5579690608
 H       -17.1031819189        8.6837307112      -14.1855182789
 H       -18.6686209897        9.4785665886      -13.6832695361
 H       -18.2141350505        8.6915579228      -15.3082710758
 H       -20.5069189490        6.3669518169      -13.2279455772
 H       -20.5830550368        7.3498262642      -14.6864078509
 H       -20.5890477729        8.1318599320      -13.1594214665
 H       -15.2131067760        4.4004829994      -17.3041463855
 H       -13.6742528096        3.6947032421      -17.1717217983
 H       -14.1807512140        4.9514122530      -15.9261209961
 H       -16.5204090800        1.7914521124      -16.5589222272
 H       -15.3711212815        1.0379898902      -15.4157608993
 H       -14.7378540063        1.5318927994      -16.9351060137
 H        -8.0687456188        6.3300425924      -13.9212386905
 H        -9.8248104957        6.3777716785      -14.1468176943
 H        -8.8271906560        5.7591085030      -15.3387827553
 H        -7.6839270110        2.7245400292      -12.9366067754
 H        -6.7826926171        4.2142011547      -13.2863029224
 H        -7.6068643070        3.4291614853      -14.6218776047
 H       -14.4128387365        4.3648373259       -8.8184567108
 H       -14.1509278966        3.5890731870      -10.3432671442
 H       -13.5413893866        5.2461466128      -10.1574754918
 H       -12.3257981832        4.9905095992       -6.9635610337
 H       -12.5234411179        6.0912007309       -8.3126230388
 H       -10.9869749057        5.3350618845       -7.8039371851
 H       -13.6569847708       -0.4260229303      -12.7354056574
 H       -15.1020844225       -0.5981425254      -11.5254807958
 H       -14.3369643458       -1.9456995271      -12.3672875116
 H       -13.8637916711       -3.0356839527      -10.3394079197
 H       -14.8864743551       -1.9004010042       -9.5102329945
 H       -13.3896422040       -2.3707660821       -8.8099702460
 H        -8.7030732522       -4.2822423533      -14.5681888014
 H        -7.0222639969       -4.1229971303      -14.6813743923
 H        -8.0652366592       -2.6633687238      -14.2479659692
 H        -7.7038619785       -6.0470202125      -13.0850405598
 H        -7.2950352541       -5.8125126251      -11.4598972642
 H        -6.1758152470       -5.4269165536      -12.8515052726
 H        -2.3689599363       -1.2631885219      -12.5604367977
 H        -1.2219719458       -1.5072762123      -13.8351497899
 H        -0.9181642849       -1.7863688260      -12.1716034310
 H        -1.1201088774       -4.2255956299      -15.0773016605
 H        -2.3809181243       -3.1079273503      -15.3636096334
 H        -2.9047892883       -4.5905639525      -14.7940858365
 H        -0.5420317266       -6.1083776651       -7.9683822346
 H         0.6720345073       -5.8842028974       -6.7847863026
 H         1.0649439343       -6.2891694791       -8.4521636805
 H        -0.3786972072       -2.3424416880       -7.0989417127
 H        -0.5115126083       -3.7409825742       -6.2065659844
 H        -1.5555893481       -3.4595161126       -7.6911029070
 H         5.3109234911       -5.3829279866       -8.8866906316
 H         4.2300401017       -5.7606122362       -7.6155445076
 H         5.6538929425       -6.5294318447       -7.5068824827
 H         6.4175413450       -3.9984304397       -4.8674116803
 H         6.3160399058       -5.7051656754       -5.2004321382
 H         4.8215459355       -4.8302020767       -5.3140578700
 H        10.3844933050       -6.0304618129      -11.6772336042
 H        11.4378074620       -7.3310907165      -11.0974079145
 H        11.2766848390       -5.9140269079      -10.1510077949
 H         7.5577315353       -8.3078392846      -10.5661643408
 H         8.9963907557       -9.1462943274      -10.9852677578
 H         8.5784196134       -7.7818308285      -11.9309636848
 H         9.8996123802      -10.6232337953       -3.0143315566
 H        10.7901864142      -10.6774883843       -4.6459393476
 H         9.1275329954      -10.6432050836       -4.4799413738
 H         7.9459219231       -8.4505571605       -3.5456611110
 H         9.1139534130       -7.0835535154       -3.1043374993
 H         9.0608123155       -8.5255848509       -2.1209333652
 H        14.3489025634       -2.3892300995       -4.1089533975
 H        14.8194935791       -3.9988669607       -3.9565024840
 H        14.2721540760       -3.2271371272       -2.5119324669
 H        11.9899893512       -2.7810613233       -2.2453619820
 H        10.6052593163       -2.5629388092       -3.3553526423
 H        12.0320993325       -1.5570410378       -3.5195334117
 Na       10.2778532942       -5.3612724127       -6.5673821197
 Na      -12.0821955694        1.6974405866      -12.3545943385
