232

 C        12.7545485880       -1.7033095549       -5.9507601496
 C        12.5886380147       -3.1513665826       -5.4830679951
 O        12.2423562620       -4.0012909001       -6.2765244645
 C        12.5805280332       -3.4238564754       -3.8803839144
 C        11.9573808247       -4.9725056731       -3.7902713916
 O        10.8719338033       -5.2709354164       -4.2907455146
 C        12.7480966789       -6.1474140586       -3.1975486652
 C        11.8319186422       -7.2845084059       -2.8029416763
 C        11.4401292391       -8.1263928567       -4.0179809634
 O        12.2922827660       -8.6135740013       -4.7254221281
 C         9.8505945821       -8.6501205999       -4.1679835474
 C         9.4483941268       -8.1750756501       -5.5390649128
 O         8.6674498464       -7.2202095116       -5.5808475420
 C         9.7119603610       -9.0535420190       -6.7438455422
 C         8.9403721621       -8.4482859124       -7.9913566035
 C         9.7996165167       -7.4400657205       -8.7552182879
 O        10.7041470818       -6.8582496535       -8.1820476235
 C         9.3795867450       -6.9617412439      -10.1959200615
 C         8.3629454554       -5.8729851260       -9.9588930101
 O         7.2386666630       -5.9620218744      -10.3564512846
 C         8.8025930949       -4.4241532814       -9.5745893221
 C         7.5427685645       -3.7887735131       -8.9480809860
 C         7.2577240502       -4.2613062427       -7.5038083016
 O         8.1878656416       -4.4310517687       -6.7419110831
 C         5.8061748117       -4.4253815629       -7.0100065036
 C         5.0200267714       -3.0518465427       -7.1807969504
 O         5.5944396251       -2.0413919383       -7.6430178293
 C         3.6757847430       -3.0861947813       -6.4820095455
 C         2.5161021264       -2.5680651034       -7.3998006859
 C         1.9165384176       -3.7002266081       -8.1767153893
 O         2.7520676142       -4.2750214348       -8.8786470629
 C         0.3941310531       -4.2130808527       -8.1981377703
 C         0.0197994159       -4.0040534044       -9.7840462068
 O        -0.5011054695       -3.0149290189      -10.1780371886
 C         0.3549068348       -5.2160745128      -10.7229517071
 C         0.0989531211       -4.7981361776      -12.2029820751
 C        -1.4514518569       -4.3548449013      -12.2433063025
 O        -2.1473398181       -4.9813014846      -11.4586527832
 C        -2.2763598610       -3.3843529953      -13.1364447820
 C        -3.8033056396       -3.4014324575      -12.8019885611
 O        -4.5812116053       -3.8529063102      -13.6366185928
 C        -4.2080736940       -2.9044977010      -11.4807655472
 C        -5.5842937226       -3.3362201774      -11.0587071211
 C        -6.7613006211       -2.8910669483      -12.0674118519
 O        -6.8451868913       -1.6988635304      -12.2147032505
 C        -7.7180462685       -3.9735184983      -12.6706103327
 C        -9.0552890601       -3.7982606079      -11.8949625291
 O        -9.5765660211       -4.6592017645      -11.2199895546
 C        -9.8348190575       -2.4548048770      -12.0167330523
 C       -11.1518575850       -2.4824264272      -11.1536347658
 C       -11.7614798715       -1.1160214241      -11.1141023547
 O       -11.1936372015       -0.2120338364      -11.6981123757
 C       -13.3165558296       -1.0495772894      -10.5922542954
 C       -13.4086457431        0.3469661452       -9.8625913619
 O       -13.6495110200        1.3897181671      -10.4813984933
 C       -13.2476652113        0.2843376996       -8.3056917911
 C       -13.3836882279        1.6568037531       -7.6941375907
 C       -12.1729831035        2.5289258665       -8.0368900619
 O       -11.0387779997        2.1789933078       -7.6996621592
 C       -12.2060738370        4.0565514431       -8.8029446402
 C       -11.1125435762        4.0510866665       -9.9181533738
 O       -11.3373611852        3.8600121728      -11.1170218038
 C        -9.7449272158        4.2932423431       -9.5359523513
 C        -8.6891103753        4.0950697619      -10.6609408322
 C        -9.0303142543        5.0441069822      -11.8787186763
 O        -9.4996530390        6.1307667631      -11.7610527010
 C        -8.8865983218        4.5002213535      -13.4613213035
 C       -10.1449062298        3.4998953602      -13.7675916218
 O       -10.0776671809        2.4894888363      -13.1372015317
 C       -11.4576762336        3.8274692015      -14.6633883269
 C       -12.8886589570        3.8950215042      -13.9713536638
 C       -13.6844334935        2.7769414378      -14.5363760823
 O       -13.3393811782        1.6594644936      -14.2680973843
 C       -14.9599654833        2.9965126926      -15.4753842572
 C       -16.1597851396        3.7985890392      -14.4881024280
 O       -15.7734082576        4.4244276892      -13.5577151192
 C       -17.6571656550        3.5976522934      -14.8862355533
 C       -18.5606043884        4.6400827325      -14.2649284851
 C       -18.1291641290        6.0858285673      -14.4474932488
 O       -17.1710797797        6.3115982193      -15.1637662520
 C       -18.7197047239        7.3580497006      -13.6239901954
 C       -18.3662319594        7.1114303305      -12.0109747166
 O       -18.4208668878        6.0086216619      -11.5364785669
 C       -17.9515129943        8.4326576803      -11.3756957757
 C       -18.2857153844        8.7411412551      -14.2390060667
 C       -20.2905247057        7.3054934682      -13.7349234045
 C       -14.5641538250        4.0241824490      -16.6417155861
 C       -15.5732893703        1.7448515182      -16.2657076035
 C        -8.7674290304        5.8096644317      -14.2748522791
 C        -7.6010506573        3.6776019005      -13.6532119667
 C       -13.5664019133        4.2454824301       -9.4957226617
 C       -11.9745217522        5.1116363743       -7.7522353267
 C       -14.1842066884       -1.0678321220      -11.8726830091
 C       -13.6490122070       -2.2934977560       -9.7145927882
 C        -8.0812100830       -3.6725461266      -14.0979591954
 C        -7.1211003441       -5.3735565720      -12.4452784855
 C        -1.6473633140       -1.9724983299      -13.0383277519
 C        -2.0511756965       -3.9467052090      -14.5837010073
 C         0.4171118244       -5.7095908224       -7.7223162955
 C        -0.5756383315       -3.4137510356       -7.3937297051
 C         5.2888197808       -5.6046917418       -7.8659079274
 C         5.9016808646       -4.7931044217       -5.4984233470
 C        10.6514460197       -6.4797571550      -10.9086521204
 C         8.7846269766       -8.1542087590      -10.9511405123
 C        10.0078675946      -10.2089677029       -4.0921318863
 C         8.8425213972       -8.0706663793       -3.0508322544
 C        13.9577874726       -3.2978553247       -3.3100354994
 C        11.5191158890       -2.5414321841       -3.2075514447
 H        13.5291177433       -1.1334786368       -5.5057999881
 H        11.7779081329       -1.2360084150       -5.6936724853
 H        12.8561212889       -1.8304537256       -7.0658169148
 H        13.2910465467       -5.7026149855       -2.2903999067
 H        13.5138651498       -6.4828284458       -3.9483064182
 H        10.8994927246       -6.8259422708       -2.4248551902
 H        12.3248982370       -7.9899366836       -2.2052436331
 H         9.4426998190      -10.0869271280       -6.4832934012
 H        10.7570889965       -8.9715705865       -7.0653618498
 H         8.1139826246       -7.9382879781       -7.5064896959
 H         8.5730110756       -9.2398434248       -8.6747004840
 H         9.1439875815       -3.8713859679      -10.4501768584
 H         9.6035877091       -4.4106720640       -8.8958954445
 H         6.6667037580       -4.0179987373       -9.5659161733
 H         7.5240673259       -2.7415699926       -8.9590575543
 H         3.5616533269       -2.6704691451       -5.5005343659
 H         3.4842233917       -4.1126437957       -6.2885655867
 H         2.9728307939       -1.8469285409       -8.0551345795
 H         1.7637517025       -1.9500738092       -6.8065182815
 H        -0.3432582046       -6.1013781240      -10.5607980580
 H         1.3891299133       -5.4745938200      -10.4449021138
 H         0.2756861148       -5.6765481040      -12.7276381762
 H         0.7947527282       -4.1231570313      -12.6240015121
 H        -4.0833666811       -1.7580022572      -11.6754978211
 H        -3.4884419585       -3.3153243048      -10.7387657015
 H        -5.7435121396       -2.9384419774      -10.0518549114
 H        -5.5375388171       -4.3492457095      -10.9163875872
 H       -10.0559942267       -2.3783953899      -13.0413224674
 H        -9.2113132892       -1.6075570181      -11.6013349411
 H       -10.9554911275       -2.6880982131      -10.0365893197
 H       -11.8196543179       -3.2771653403      -11.4948907845
 H       -12.2868411601       -0.1180139889       -8.0198619964
 H       -14.0832886416       -0.2427233711       -7.9017450164
 H       -13.3849740753        1.5891446062       -6.6296748839
 H       -14.3971969275        2.0084782454       -7.9457026231
 H        -9.5029991456        3.6026337537       -8.7334362898
 H        -9.7151307281        5.3861640099       -9.2856679209
 H        -8.7284903769        3.0510685291      -10.9375068798
 H        -7.7218077023        4.2531348920      -10.3103835699
 H       -11.5135540927        3.0069607003      -15.3616430543
 H       -11.3756914448        4.6966533337      -15.2577139843
 H       -13.3965885539        4.8594382401      -14.1778161523
 H       -12.7187424963        3.8206227312      -12.8872666576
 H       -17.8892838348        2.5844473214      -14.4295905934
 H       -17.9805089627        3.3783724658      -15.9175363018
 H       -18.6544666254        4.4411778395      -13.1993938777
 H       -19.5879385820        4.5417726521      -14.6506886685
 H       -17.7908223203        8.3180655725      -10.3033597279
 H       -18.7025233093        9.2237292973      -11.3818999626
 H       -17.0296561092        8.7095806768      -11.7934682642
 H       -17.2880950329        9.2024388214      -14.1800891505
 H       -19.0336752070        9.4625089704      -13.7994445807
 H       -18.3703507796        8.6588890305      -15.3012679409
 H       -20.5783577564        6.5692679409      -12.9474481957
 H       -20.7811129746        6.9273424668      -14.6515599058
 H       -20.6554087195        8.2096169187      -13.5732009886
 H       -15.4497412534        4.3422248611      -17.1841189136
 H       -14.0475352029        3.5106644057      -17.4770681527
 H       -14.0505469937        4.8791908628      -16.1450770889
 H       -16.6272772993        1.7962045039      -16.4360072454
 H       -15.3916654531        0.7318215337      -15.7976170358
 H       -15.0813684750        1.7239674511      -17.2343776243
 H        -7.8020593884        6.1361527075      -14.5022785666
 H        -9.3775026651        6.6319557632      -13.8905490953
 H        -9.3368640686        5.7535162887      -15.2056444418
 H        -7.3837738777        3.0562591826      -12.7891296761
 H        -6.7910662796        4.4086845532      -13.7537114885
 H        -7.6156154588        3.0883375103      -14.5318148720
 H       -14.3873215062        4.0990133782       -8.7324051260
 H       -13.7746040671        3.5845462231      -10.2013242078
 H       -13.4420843655        5.1800759225      -10.0503944967
 H       -12.3245655279        4.8876413356       -6.7717351359
 H       -12.4283616864        6.0685824497       -8.0072330874
 H       -10.9252296175        5.2085368867       -7.5596198009
 H       -13.8882049608       -0.2790147073      -12.6385981298
 H       -15.2420056964       -1.0692947133      -11.5557777806
 H       -13.9806647816       -1.9206070841      -12.4702874344
 H       -13.8336339282       -3.1677166380      -10.2885458853
 H       -14.5782180008       -2.1469391952       -9.0894565313
 H       -12.9320939955       -2.4736976959       -8.9511299015
 H        -8.8373366733       -4.3418724241      -14.2557852839
 H        -7.2720400869       -3.9991337406      -14.7215749951
 H        -8.4992420742       -2.6645338471      -14.1309801517
 H        -7.4828565124       -6.0675486307      -13.0936736837
 H        -7.4879157491       -5.7377718399      -11.5356784548
 H        -6.0601392785       -5.2765886862      -12.6759780243
 H        -2.3286045655       -1.1882743027      -12.7181690041
 H        -1.1581151515       -1.7531901260      -14.0044279796
 H        -0.9558629116       -1.8915768268      -12.2510979890
 H        -1.0384106719       -3.9163845574      -14.8136656584
 H        -2.5278236147       -3.2620053513      -15.2696473454
 H        -2.5129461019       -4.9934184545      -14.7122412977
 H        -0.5467441080       -6.1030824822       -8.0483407191
 H         0.3511295834       -5.8306308244       -6.6490375249
 H         1.1604285804       -6.3568809393       -8.2204280083
 H        -0.5133132248       -2.3603868208       -7.3810832351
 H        -0.5093558826       -3.5824705638       -6.2755102004
 H        -1.5586461388       -3.6470563643       -7.6917877114
 H         5.7232908826       -5.5412371023       -8.9012958254
 H         4.2728645248       -5.7112183340       -8.1056071328
 H         5.4576291258       -6.5703092445       -7.3964450806
 H         6.8490935536       -4.3972722228       -5.0476116718
 H         5.9896060571       -5.8668033887       -5.5132100807
 H         4.9569547492       -4.5972368212       -5.0753676907
 H        10.5446159874       -6.1086381548      -11.9457427523
 H        11.4585386081       -7.2825951056      -10.8543596731
 H        11.1484445267       -5.6706585161      -10.3560392186
 H         7.8161111058       -8.4097574911      -10.4590934764
 H         9.2681418439       -9.1092556929      -11.0274379926
 H         8.5850016924       -7.8578142505      -11.9953555022
 H        10.1586112752      -10.6932936867       -3.1836877675
 H        10.6612178628      -10.5365407464       -4.8817737803
 H         9.0390293607      -10.6592485865       -4.4465824573
 H         8.0341361045       -8.7927303863       -3.1498161559
 H         8.5713860629       -7.0533578939       -3.2539950281
 H         9.2670403041       -8.1304041153       -2.0411622541
 H        14.4352996676       -2.4409462759       -3.8141202047
 H        14.7146595269       -4.1211133217       -3.4872886551
 H        13.9618875767       -3.1574009366       -2.2432856328
 H        11.4843843392       -2.5852253648       -2.1135167145
 H        10.6083237421       -2.8961326019       -3.6705022315
 H        11.5484197233       -1.5563543487       -3.5873753001
 Na       10.2211135052       -5.4243326241       -6.5862176083
 Na      -12.0982180007        1.7250111315      -12.3690508196
