232

 C        13.0963543776       -1.6652989652       -5.6019561635
 C        12.3395529573       -2.9885743368       -5.4134035003
 O        11.9383882247       -3.6219632234       -6.3514393910
 C        12.2334855682       -3.5450415894       -3.8905629255
 C        11.8788896939       -5.0184011044       -3.8501755801
 O        10.7595906431       -5.4306224903       -4.1574125734
 C        12.7810902839       -6.0913230281       -3.3396726983
 C        11.9344252780       -7.3501687257       -2.8941547654
 C        11.4062406368       -8.1136506226       -4.0553836086
 O        12.1678164883       -8.4930644464       -4.9548741228
 C         9.9493440570       -8.6165579883       -4.0889139601
 C         9.3486928249       -8.0867515607       -5.4771843907
 O         8.6815700634       -7.0707699562       -5.4410574943
 C         9.5867476950       -8.9154823752       -6.7711271932
 C         9.1158793935       -8.4103113086       -8.1734458740
 C         9.8836597300       -7.2780585730       -8.9515200715
 O        10.6369596822       -6.5393866052       -8.3928834312
 C         9.5433202870       -6.9902344610      -10.4301285218
 C         8.2305117421       -5.9931012156      -10.3313865507
 O         7.1224316906       -6.3092436031      -10.6840140085
 C         8.5520528413       -4.5514940473       -9.7955579191
 C         7.3542605731       -3.8201172687       -8.9845545650
 C         7.1419089790       -4.1758046975       -7.4994634047
 O         8.0423075559       -4.3431751236       -6.7010092548
 C         5.7661828755       -4.3956454144       -6.9428189818
 C         4.7923879256       -3.1169745330       -7.2226631893
 O         5.1940789014       -2.3721184704       -8.1343001257
 C         3.6183719370       -2.8425067296       -6.3837531597
 C         2.3860659154       -2.4743135480       -7.2838686330
 C         1.9363410907       -3.6471994400       -8.1666548726
 O         2.8015651354       -4.2409629687       -8.7933608836
 C         0.4001979817       -4.0408555402       -8.3734387135
 C         0.2219014166       -3.9157869307       -9.8839466239
 O        -0.2732480954       -2.9756737196      -10.4039899312
 C         0.7580808716       -5.0006593652      -10.8801354288
 C         0.0219182883       -4.8848766544      -12.1331862519
 C        -1.5183621378       -4.6265943569      -12.0305862889
 O        -2.1932234232       -5.1448600653      -11.1359210464
 C        -2.1076453672       -3.7006865975      -13.0735850984
 C        -3.7435235339       -3.6151405216      -12.8519623785
 O        -4.5653818631       -4.1297358119      -13.6208823682
 C        -4.1301973320       -2.8601196460      -11.5737307248
 C        -5.5177076505       -3.4294066473      -11.1611736450
 C        -6.5784845175       -3.0100974604      -12.1243384078
 O        -6.7287888515       -1.7919193881      -12.4283478191
 C        -7.6505007147       -4.0248653193      -12.7769080031
 C        -9.0238052422       -3.7629224653      -11.9165290397
 O        -9.4866679471       -4.6818250404      -11.2650888802
 C        -9.5891652642       -2.3192666322      -11.8226830030
 C       -10.7669509299       -2.2266916433      -10.8692888210
 C       -11.7138103549       -1.1019223148      -11.1045410051
 O       -11.3982400779       -0.3183498970      -11.9604475994
 C       -13.1770911325       -1.1814160362      -10.5084699954
 C       -13.3259641627        0.1767313183       -9.7620256482
 O       -13.5413012621        1.2585670743      -10.3666357899
 C       -13.1863958940        0.2285046881       -8.2930897917
 C       -13.2153695588        1.6163559389       -7.6786776875
 C       -11.9669362827        2.4191335900       -7.8998162080
 O       -10.8349254034        1.9171156914       -7.8193768980
 C       -12.1063216928        3.9607754251       -8.3718982667
 C       -11.1069194399        3.8785474867       -9.7157574916
 O       -11.5296416375        3.2907522052      -10.7056601217
 C        -9.7020118935        4.5100119866       -9.6383935399
 C        -8.9086621584        4.1906576842      -10.9428878902
 C        -9.1097122288        5.1261190319      -12.1346345577
 O        -9.1177180180        6.3058181203      -11.9652155222
 C        -8.9507452153        4.5343192171      -13.6698876157
 C       -10.2416472585        3.7076083115      -13.8215154591
 O       -10.3655873606        2.7100930330      -13.1357971250
 C       -11.3286510890        3.8805887577      -14.9522526262
 C       -12.7390040166        3.9542071628      -14.3901277825
 C       -13.6566370107        2.7652925184      -14.5993454985
 O       -13.4127520286        1.7271281637      -14.0873871209
 C       -14.9998430511        2.9993151487      -15.4285208290
 C       -15.9382503518        3.8078407161      -14.4325338604
 O       -15.5728334246        4.3391436565      -13.4307622317
 C       -17.3983818974        3.9253349499      -14.8965137084
 C       -18.2086193310        4.6731852737      -13.9323611200
 C       -18.1554098652        6.1594784399      -14.3564816757
 O       -17.4018300944        6.5196008021      -15.2453934257
 C       -18.7995936741        7.3064319444      -13.5394699943
 C       -18.2653833505        7.2423791204      -12.0866790443
 O       -17.7680738166        6.2874910934      -11.5249126808
 C       -18.3887421192        8.5898282403      -11.2450810134
 C       -18.7140819164        8.6995746836      -14.1816502768
 C       -20.3312928868        6.9223135689      -13.4008033168
 C       -14.7880704259        4.0372196175      -16.6427823901
 C       -15.6041930722        1.6151439705      -15.8147770199
 C        -8.7844734656        5.7221804042      -14.7117563918
 C        -7.6573095281        3.6550954156      -13.8560091488
 C       -13.4628351866        4.3767670478       -8.9136132499
 C       -11.6322513655        4.8450368753       -7.1421438970
 C       -14.2369880576       -1.1680823904      -11.6144267034
 C       -13.4850780745       -2.3823819156       -9.5423133175
 C        -7.8567749620       -3.4840437994      -14.1387602834
 C        -7.2805698295       -5.4931952062      -12.7469861477
 C        -1.4645808924       -2.2887133790      -12.9343172002
 C        -1.8958157139       -4.3924053767      -14.4748011498
 C         0.2718332224       -5.5140938089       -7.8496026584
 C        -0.5908103939       -3.1464010771       -7.7228316515
 C         5.1142600631       -5.5449888385       -7.7871558067
 C         5.6802776932       -4.9607849655       -5.4756370312
 C        10.7245419748       -6.2443018190      -11.0144368997
 C         9.1412069779       -8.1757904374      -11.3022726290
 C         9.9652551445      -10.1947454728       -4.0908500058
 C         8.9764933285       -8.0339735395       -2.9644754375
 C        13.5153498604       -3.1055728907       -3.1545995646
 C        11.0269968901       -2.7599852138       -3.3430827599
 H        14.0164909400       -1.6729865826       -5.0792236731
 H        12.3549362844       -0.9834617523       -5.0879272295
 H        13.2745837413       -1.3002841454       -6.6481778436
 H        13.2771346864       -5.7057545466       -2.5043480608
 H        13.4957747508       -6.3433901819       -4.1279451813
 H        11.1119286188       -7.0013560404       -2.2126859719
 H        12.6055685806       -8.0018501774       -2.3639168561
 H         9.1324196241       -9.8651998436       -6.6714344066
 H        10.6702301296       -9.0751411537       -6.8930938364
 H         8.1117284768       -7.9802940009       -7.8856967816
 H         8.9177524665       -9.2966574603       -8.7550051036
 H         8.8366306860       -3.7938346723      -10.6161222878
 H         9.4606182827       -4.6113000551       -9.1747731377
 H         6.3649225413       -3.8740985718       -9.5092313205
 H         7.5594013603       -2.6820941884       -9.0344254329
 H         3.9276052953       -2.0894286950       -5.6282346760
 H         3.2721008530       -3.6595828334       -5.6948354824
 H         2.6676053295       -1.7287863125       -8.0335042772
 H         1.6056194758       -2.0115320800       -6.7009388600
 H         0.6282528385       -5.9232075833      -10.3830056179
 H         1.8145972864       -4.8609838570      -11.0292674330
 H         0.0648805604       -5.8681413141      -12.7425015107
 H         0.6548153867       -4.2011252611      -12.7424856220
 H        -4.1830664016       -1.7639293085      -11.7507816862
 H        -3.3468671647       -3.2186016566      -10.9374101077
 H        -5.7901322986       -2.9930092196      -10.1530438827
 H        -5.5485517252       -4.5099690023      -11.0541122547
 H        -9.7972416989       -2.0843793563      -12.8737166367
 H        -8.8515634549       -1.5849357140      -11.3088054237
 H       -10.6561145522       -2.2218126468       -9.7688470936
 H       -11.3622449908       -3.1435679025      -10.9708021670
 H       -12.2879183462       -0.2141140177       -7.8923805364
 H       -14.1073504947       -0.2915478031       -7.8245748355
 H       -13.2573868393        1.3368178570       -6.6174406378
 H       -14.1636151273        2.1201103958       -7.8476510800
 H        -9.1222181060        3.9548810614       -8.9183577798
 H        -9.6807037579        5.5269032874       -9.5562909537
 H        -9.1814239101        3.1889364103      -11.2302136462
 H        -7.8111646164        4.1435672855      -10.7014006557
 H       -11.3064121452        2.8962509207      -15.4985864120
 H       -11.2205071740        4.6983308637      -15.7082800702
 H       -13.1456475034        4.8665880043      -14.7513364914
 H       -12.7512918806        4.1841932627      -13.2963443808
 H       -17.8298778646        2.9183559220      -14.8960415347
 H       -17.5370554040        4.2903082229      -15.9094523952
 H       -17.9045494954        4.4421689055      -12.9120797681
 H       -19.2367551863        4.3280785609      -13.9770996550
 H       -18.2189162235        8.4673900860      -10.1568535214
 H       -19.4697226772        8.9674587832      -11.2935712596
 H       -17.6649393577        9.3088305911      -11.5624915463
 H       -17.7242698377        9.1308563633      -14.4089302941
 H       -19.0967926984        9.4983808623      -13.4442077830
 H       -19.3320748201        8.6332386452      -15.0382109619
 H       -20.4586767613        5.8153701400      -13.2555069505
 H       -20.6951599437        6.8796931479      -14.4535271494
 H       -20.8994187171        7.5507910923      -12.8681626364
 H       -15.5538944679        3.9221290732      -17.3702824680
 H       -13.8894743213        3.8249109355      -17.1958716773
 H       -14.8760095073        5.0091981942      -16.2099272087
 H       -16.2963320487        1.7474571533      -16.6978703398
 H       -16.2208106876        1.1570652705      -15.0038229188
 H       -14.8017159850        1.0145815816      -16.2050400377
 H        -7.8231055548        5.6738911536      -15.1347193759
 H        -8.7149957967        6.7148378035      -14.1489714094
 H        -9.6596080544        5.9554129409      -15.3770787195
 H        -7.9068611743        2.6310861011      -13.4504755103
 H        -6.7189127182        4.0702840110      -13.5091861619
 H        -7.6177827354        3.5243361838      -14.9414370049
 H       -14.1838342298        4.2252222900       -8.1364240365
 H       -13.7764623123        3.7546840905       -9.5971888590
 H       -13.3044515904        5.2617231176       -9.5086254029
 H       -12.5519014613        5.2255785400       -6.5987650792
 H       -11.0983683761        5.8114234391       -7.3888281785
 H       -11.0292398823        4.3813532720       -6.4032843185
 H       -14.5002532186       -0.0637406585      -11.8694425795
 H       -15.1516231485       -1.4888933186      -11.1690506505
 H       -14.0523091816       -1.6448022351      -12.5558285352
 H       -13.4043842619       -3.2755463233      -10.0968277414
 H       -14.5331594542       -2.4271282130       -9.1689608409
 H       -12.9452079570       -2.3890766931       -8.6022081369
 H        -8.7792115941       -3.7936991864      -14.5692190109
 H        -6.8918468296       -3.7627084995      -14.6421345370
 H        -7.8756433885       -2.3829340986      -13.9303723518
 H        -8.1448772546       -6.1360193477      -12.7054317198
 H        -6.9043002998       -5.7813706063      -11.7377649677
 H        -6.5749866863       -5.7154834008      -13.5901796704
 H        -1.6852978108       -1.7159937486      -13.8822083918
 H        -0.3858823754       -2.3593501342      -12.8136294880
 H        -1.8568230607       -1.6822038475      -12.1666394210
 H        -0.9695354360       -4.2116009216      -14.9641542573
 H        -2.6183305221       -3.9755930240      -15.0790075426
 H        -1.8753998419       -5.5336574946      -14.3218963865
 H        -0.7491046014       -5.9503054731       -7.9449700516
 H         0.4640075705       -5.4529336247       -6.7950995293
 H         0.9855081694       -6.2019784300       -8.2591687407
 H        -0.6811488045       -2.1575106522       -8.1453151371
 H        -0.3173343245       -2.9006921732       -6.6021239281
 H        -1.5481485441       -3.6193733671       -7.4745660531
 H         4.7233214940       -5.1062060428       -8.7580016800
 H         4.2336106327       -6.0174857068       -7.4503118201
 H         5.7733304961       -6.3736691248       -7.9894169794
 H         6.0117757783       -4.1891964806       -4.7665208901
 H         6.3894148526       -5.6982825117       -5.3666672648
 H         4.6326688098       -5.2780086570       -5.4300003561
 H        10.5290258996       -5.8013236890      -11.9477011901
 H        11.6424617442       -6.8498392717      -11.1221346840
 H        10.9611188936       -5.3780240601      -10.4711686124
 H         8.2336321972       -8.6589302522      -10.9562050722
 H         9.8510115568       -8.9929706017      -11.2306803655
 H         9.1053645155       -7.9027007114      -12.3268245552
 H        10.3160904129      -10.4923201432       -3.0861283884
 H        10.7279578719      -10.6711870901       -4.7040169624
 H         8.9997954940      -10.7245015080       -4.2692942049
 H         7.9111760615       -8.1349993251       -3.1647406007
 H         9.3294096008       -6.9917601865       -2.8464025386
 H         9.1611135072       -8.6215831475       -2.0772526684
 H        13.5291228883       -2.0417605746       -2.8930703899
 H        14.4141129902       -3.1909994879       -3.7937183753
 H        13.7647432663       -3.6171997710       -2.2243110594
 H        10.6903015636       -3.3463133015       -2.4751492503
 H        10.2205312980       -2.8431561319       -4.0858191900
 H        11.1055922804       -1.6705584822       -3.1160438452
 Na       10.1377394340       -5.3369954906       -6.3579919558
 Na      -12.4007633018        1.8471195213      -12.2235408598
