232

 C        13.2178055345       -1.7693658344       -5.5431658645
 C        12.2632817955       -2.9656048163       -5.4376737409
 O        11.5721999292       -3.2893026822       -6.3538968284
 C        12.0302147812       -3.5648283542       -3.8642613589
 C        11.7069200884       -5.0811111124       -3.7812449155
 O        10.5936579047       -5.5098828527       -3.9864276188
 C        12.7488724563       -6.1022363859       -3.2901467662
 C        12.1578013524       -7.5388915755       -3.0192531674
 C        11.4111491165       -8.0952039218       -4.2016297494
 O        12.1090212649       -8.2228774087       -5.1750803597
 C         9.9274187216       -8.5812011620       -4.1146903276
 C         9.4221366969       -8.0284088652       -5.5769053198
 O         8.7467944375       -7.0324772281       -5.6120795658
 C         9.8662362980       -8.7777420395       -6.8581037808
 C         9.0862130854       -8.3225139392       -8.2431176881
 C         9.8162243811       -7.1769356156       -8.8602726852
 O        10.5577781528       -6.3542211890       -8.2632479318
 C         9.5701063529       -6.8741388165      -10.3535980693
 C         8.3040499633       -6.0162004906      -10.3220919899
 O         7.2071410811       -6.4288005500      -10.6501161033
 C         8.4711209468       -4.6206303689       -9.7718416607
 C         7.2147172085       -4.1785163913       -9.1611524234
 C         7.0794608204       -4.4052943150       -7.6024409673
 O         8.0371075843       -4.2138171335       -6.8682526387
 C         5.6156360090       -4.5621265872       -7.0225198372
 C         4.7513445490       -3.2309976885       -7.4963119332
 O         4.9743313783       -2.4804540181       -8.3801522949
 C         3.5523596471       -2.9564046093       -6.4299624745
 C         2.3065662962       -2.4331495920       -7.1302842802
 C         1.9008092043       -3.5441417034       -8.0957870069
 O         2.7658559414       -4.0874981356       -8.7391467499
 C         0.4508384980       -3.9068725487       -8.4237268020
 C         0.3259484453       -3.7777543980       -9.9510283009
 O        -0.1374874161       -2.7228496509      -10.3945184984
 C         0.7262088161       -4.9247067453      -10.8246924932
 C         0.0333835033       -5.0561052602      -12.2520372255
 C        -1.4241748520       -4.8450559784      -11.9960398485
 O        -2.0202018504       -5.2860245285      -11.0522936084
 C        -2.1905455936       -4.0197475265      -13.0431443222
 C        -3.6785946278       -3.8303808929      -12.8456341858
 O        -4.4400795276       -4.2241994170      -13.6807548739
 C        -4.1147339919       -3.0065082236      -11.5938151961
 C        -5.4308050597       -3.5370497459      -11.2095399909
 C        -6.4913276925       -3.0397572033      -12.2556126352
 O        -6.4700654854       -1.8336508622      -12.3832347323
 C        -7.5735713226       -3.9220812244      -12.7893518003
 C        -8.8704227082       -3.6920720111      -11.9231736256
 O        -9.3089298968       -4.6845633422      -11.3439032538
 C        -9.4905618864       -2.2755520039      -11.7930743488
 C       -10.6546580474       -2.1717077263      -10.7164629145
 C       -11.7881616021       -1.2519413125      -11.0866809899
 O       -11.5634665802       -0.4480813203      -12.0206557361
 C       -13.1337764791       -1.2965249044      -10.4133136472
 C       -13.1895698714        0.1295678581       -9.5478223072
 O       -13.5250438684        1.1694351282      -10.0435843635
 C       -13.1251543154        0.0864653962       -8.0485038087
 C       -13.2074602512        1.5959134317       -7.4359611356
 C       -11.9261497503        2.3581298777       -7.8136942134
 O       -10.9457635309        1.6740013712       -7.8428152992
 C       -11.8538935819        3.8524979204       -8.2019477097
 C       -11.1037291835        3.9314736376       -9.6819141383
 O       -11.5759151860        3.2748250681      -10.5804447826
 C        -9.7790612979        4.8231139853       -9.8512168373
 C        -8.9634412238        4.2296129459      -11.0222236653
 C        -9.0895790182        5.1654597645      -12.2095579042
 O        -9.0735620996        6.3655276249      -12.0904117025
 C        -9.0563784954        4.5517730053      -13.7505359304
 C       -10.3514155488        3.6769844571      -14.0158649144
 O       -10.4818368640        2.6689804233      -13.3164499692
 C       -11.3534987203        4.0098694373      -15.1434897908
 C       -12.8232808161        4.1836733268      -14.5307324861
 C       -13.6833805118        3.0176891208      -14.7527721048
 O       -13.4272330409        1.9434204240      -14.1246057957
 C       -15.0180677129        3.0709786318      -15.5156161169
 C       -15.8836732837        3.8148929282      -14.4387979626
 O       -15.3902106502        4.0812374118      -13.3467564635
 C       -17.3380070328        3.8035456264      -14.6813105064
 C       -18.1238891040        4.9388030995      -13.8918608841
 C       -18.0766250284        6.3634746833      -14.3824462198
 O       -17.4865493461        6.6816503260      -15.4106098671
 C       -18.9480094883        7.3028839872      -13.4514173472
 C       -18.2698562104        7.4637441987      -11.8783224010
 O       -17.4990341525        6.5880818319      -11.5131617636
 C       -18.7203272628        8.6676699861      -11.0915523652
 C       -19.1123252589        8.6842022046      -14.1834394998
 C       -20.2464971176        6.7102458244      -13.0171012787
 C       -14.6682541606        3.8883620033      -16.8617822758
 C       -15.5242421232        1.5503696430      -15.7499483072
 C        -8.9197573365        5.7522376934      -14.7774886370
 C        -7.8812155771        3.5098809459      -13.7671690154
 C       -13.3025302055        4.5022031087       -8.3598624931
 C       -10.9972432299        4.6786045943       -7.1816237315
 C       -14.2171992141       -1.2788209277      -11.5727334283
 C       -13.3597856604       -2.5337222935       -9.4757386109
 C        -7.8911211478       -3.5213829333      -14.3464538680
 C        -7.2701957071       -5.4635010407      -12.8498682047
 C        -1.5495747531       -2.5507105026      -13.2034663244
 C        -1.9863426732       -4.6273609274      -14.4401062620
 C         0.2360512790       -5.3414741381       -7.8974782084
 C        -0.5867903287       -2.9161864867       -7.7033861814
 C         5.1420904370       -5.8441673717       -7.7652589943
 C         5.7000435621       -4.6428999344       -5.4364495395
 C        10.6684393456       -6.0817103750      -11.0528200436
 C         9.2507728349       -8.0799194582      -11.1890268222
 C         9.8985604424      -10.1347146959       -4.1352010276
 C         9.0262786074       -8.0380795937       -2.9235869644
 C        13.1855074811       -3.1954356878       -2.9007835192
 C        10.7346449911       -2.8583020958       -3.4534603006
 H        14.2595546222       -2.2162196957       -5.7510570661
 H        13.1258220801       -1.0388187706       -4.7402286977
 H        12.9431804705       -1.2768295797       -6.4675071162
 H        13.2999904783       -5.8404604459       -2.3206374191
 H        13.4889451653       -6.1961125495       -4.1267529757
 H        11.6607800084       -7.5976433649       -2.0597348875
 H        13.0990225863       -8.1485974241       -2.8007432690
 H         9.7063185169       -9.9029750268       -6.7711412138
 H        10.9259873287       -8.6404630430       -7.0234210722
 H         8.0718834763       -8.0292969133       -8.0262408483
 H         9.0385132117       -9.2289699249       -8.8944259137
 H         8.6592413773       -4.0488911429      -10.6222373457
 H         9.3044094314       -4.3773871711       -9.1131115168
 H         6.4044455420       -4.6103840068       -9.6996803740
 H         7.0600714816       -3.1373368524       -9.2700846142
 H         3.8971254411       -2.1464518644       -5.7764035623
 H         3.1458461143       -3.7249362140       -5.7842920470
 H         2.6301250351       -1.5558957340       -7.7387904687
 H         1.5509466840       -2.1000457100       -6.3934876723
 H         0.4542510627       -5.8307099305      -10.2211729714
 H         1.8509358783       -4.9648584054      -10.8067843644
 H         0.1672656858       -6.0469511462      -12.5588365902
 H         0.4237341023       -4.3996619297      -13.0088689793
 H        -4.1944454140       -1.9665865103      -11.9577346125
 H        -3.3316388378       -3.2168438124      -10.7999306986
 H        -5.7525696784       -3.1974564616      -10.2717451401
 H        -5.2872036293       -4.6353695359      -11.1696484122
 H        -9.7560905428       -1.9097329002      -12.8140986417
 H        -8.7901124351       -1.6400825122      -11.3672690562
 H       -10.4338575902       -1.9012825673       -9.6694963933
 H       -11.1775515596       -3.1460998659      -10.5372406215
 H       -12.2049771358       -0.3610890653       -7.6347665693
 H       -13.9142713340       -0.5487066283       -7.7209334049
 H       -13.3849481119        1.5497586911       -6.3631061497
 H       -14.0853247949        2.0665682166       -7.8658161844
 H        -9.1300291878        4.7257823978       -8.9675347140
 H        -9.9912190983        5.8730341198      -10.2207394598
 H        -9.3442606523        3.2537149955      -11.2681715400
 H        -7.9230347136        4.1515891313      -10.7993326681
 H       -11.3361773798        3.2605021600      -15.8949257111
 H       -11.1076201679        4.9268397374      -15.6256515675
 H       -13.2225093813        5.1933900011      -14.7747164137
 H       -12.7681583812        4.2290852663      -13.4485742418
 H       -17.6390077403        2.8292095527      -14.2296377988
 H       -17.5746138794        3.7160806670      -15.7708399104
 H       -17.6667765730        5.0761858421      -12.9009235257
 H       -19.1404468312        4.6314890052      -13.6427968890
 H       -18.4272359338        8.4595048277      -10.0822622135
 H       -19.7229005194        8.9657506077      -11.0861471420
 H       -18.0291303786        9.5076106939      -11.3157812273
 H       -18.1697755946        9.2308464529      -14.0622462861
 H       -19.7819490362        9.3899553771      -13.7930692236
 H       -19.4972111329        8.4456794666      -15.2394618480
 H       -20.1226199454        5.8028613428      -12.5178990942
 H       -21.0387761542        6.4756701212      -13.6606665117
 H       -20.5950776983        7.4586950313      -12.2144656055
 H       -15.3886414135        3.6315021569      -17.6990726347
 H       -13.6582660957        3.5294687104      -17.1489099845
 H       -14.7124405589        4.9774251545      -16.6849202206
 H       -15.5177022703        1.1981900969      -16.8015855586
 H       -16.4862676603        1.5006315607      -15.2826987000
 H       -14.8199142684        0.8753418263      -15.2020759321
 H        -7.9614040625        5.5935219941      -15.3426312645
 H        -8.7371500483        6.7112292564      -14.3655418593
 H        -9.7548692682        5.8115092953      -15.4268940728
 H        -8.1693076939        2.5777927699      -13.3274515985
 H        -7.1786364846        4.0498046781      -13.1216410057
 H        -7.3640904001        3.3564909495      -14.7239560735
 H       -13.8391601101        4.4008251768       -7.3952733066
 H       -13.9883679149        4.0247545558       -9.1288649462
 H       -13.1661051353        5.5706502643       -8.7507131774
 H       -11.4670743090        4.6470535533       -6.2244878772
 H       -10.8724269702        5.6893797273       -7.4264981008
 H        -9.9537837160        4.3211871274       -7.0536812639
 H       -13.8845251740       -0.6713355519      -12.3744191579
 H       -15.2484423957       -0.8947898722      -11.3886418037
 H       -14.2711358129       -2.3602758138      -11.9510722582
 H       -13.5072221093       -3.4970324733      -10.0118978758
 H       -14.2125726447       -2.4139207983       -8.8687165709
 H       -12.5210842077       -2.6499681721       -8.7809331312
 H        -8.6848636659       -4.2488305544      -14.5883750835
 H        -6.9727691486       -3.5415361396      -14.8289046359
 H        -8.2675690643       -2.5491433946      -14.3762548861
 H        -8.0920106859       -6.0258219448      -13.3636853138
 H        -7.0853128787       -5.8516591349      -11.8625932697
 H        -6.3701214622       -5.5420629026      -13.3508548093
 H        -0.7898526096       -2.5610254371      -13.9326747410
 H        -1.1436162647       -2.0958430256      -12.3161854231
 H        -2.3815987879       -1.8670672311      -13.4863755854
 H        -0.9030652811       -4.9307588328      -14.6001403994
 H        -2.1878326605       -3.8307518501      -15.1521618969
 H        -2.4047025563       -5.5488630551      -14.6035448691
 H        -0.6417725804       -5.7388146917       -8.3423047277
 H         0.2237429143       -5.4566719097       -6.8225178726
 H         1.0681384818       -5.9588158687       -8.2249443353
 H        -0.1482847355       -1.8984843045       -7.6655940344
 H        -0.8869906099       -3.1350476975       -6.7306578830
 H        -1.5860372803       -2.8570440349       -8.1533938156
 H         4.4885232348       -5.6986249396       -8.5741868858
 H         4.4785357816       -6.4907498680       -7.1174389548
 H         5.9797194723       -6.5024263385       -8.1108367656
 H         5.4978885411       -3.6562663147       -5.1419177098
 H         6.7558740195       -4.7818428683       -5.1294675156
 H         4.9277532692       -5.2921900408       -4.9977242977
 H        10.3503687529       -5.5125496533      -11.9650491992
 H        11.2962296898       -6.8437133390      -11.4463650137
 H        11.2532315464       -5.2494243055      -10.5931659666
 H         8.2515354947       -8.4902805960      -11.1011630736
 H         9.9689972092       -8.9153321589      -11.0756266852
 H         9.3643218442       -7.6892085904      -12.2171325219
 H        10.2326233351      -10.5728205086       -3.1913738581
 H        10.6285052022      -10.6007855339       -4.8059231861
 H         8.9403967543      -10.5035114215       -4.3922354069
 H         7.9511516653       -8.1107957258       -3.1514596590
 H         9.2387454784       -6.9826123246       -2.7759819655
 H         9.2141204242       -8.7283764548       -2.0902987441
 H        13.6190295123       -2.1974354469       -2.7480638141
 H        14.0328423695       -3.8336467780       -3.1320909965
 H        12.9449675209       -3.4176951801       -1.8199799344
 H        10.4640104676       -3.0350048384       -2.4212724686
 H         9.8835035263       -3.1933316050       -4.0564135519
 H        10.8528352934       -1.7824094314       -3.5832541367
 Na       10.0859727321       -5.0796671897       -6.4532631392
 Na      -12.4071375369        1.7590752049      -12.1120345046
