232

 C        13.4541425840       -2.3193688742       -5.4141223094
 C        12.0269084543       -3.0219000793       -5.1143154264
 O        11.4034521235       -3.3340384453       -6.0873981072
 C        11.7330519044       -3.4207944458       -3.6007144838
 C        11.5832378529       -5.0323388382       -3.7120580482
 O        10.7145204399       -5.4961179329       -4.4108847416
 C        12.6761299105       -5.9681418905       -3.2035908887
 C        12.1309899512       -7.4260508796       -3.0166947292
 C        11.6420682554       -7.9084401665       -4.4171968727
 O        12.3229177912       -8.0449820974       -5.3928395457
 C        10.0395550641       -8.4826585263       -4.4345677761
 C         9.4445857134       -8.0829579346       -5.7554818217
 O         8.6979170590       -7.1124627639       -5.7586324228
 C         9.8209410211       -8.8230811991       -6.9826820426
 C         9.2461086635       -8.2112735203       -8.2405548723
 C         9.8671587299       -7.0000138706       -8.8281398125
 O        10.5909196005       -6.2134320701       -8.1808707158
 C         9.6603193555       -6.8069888943      -10.3419918727
 C         8.2687870962       -6.0353654762      -10.3728686075
 O         7.2166463431       -6.6188632909      -10.4893446073
 C         8.3083006220       -4.5420653275      -10.0519271217
 C         6.9994067257       -4.0938791489       -9.3439088338
 C         6.9504865367       -4.3200476907       -7.8850282607
 O         7.9931958059       -4.0698968448       -7.2798880872
 C         5.6813571234       -4.5964947760       -7.0222665501
 C         4.7409444252       -3.2842592421       -7.3220198293
 O         4.7428595970       -2.6067351040       -8.3219779067
 C         3.6717486673       -2.9308669506       -6.2406480704
 C         2.3053636382       -2.4034523058       -7.0005238240
 C         1.8357023045       -3.5467144739       -7.9377867353
 O         2.6295374048       -4.2769177685       -8.4984701483
 C         0.2967766057       -3.7476273295       -8.4041942487
 C         0.2957723906       -3.7089667847      -10.0562734630
 O        -0.0642578827       -2.6407156086      -10.5733475616
 C         0.7704990429       -5.0049393105      -10.8783725010
 C         0.2753287513       -5.0094389794      -12.3169107515
 C        -1.2716555089       -4.8674554360      -12.2054509642
 O        -1.7886640688       -5.4691496394      -11.3121201958
 C        -2.0969062236       -4.1935603046      -13.2860859087
 C        -3.6955096723       -4.0945601823      -12.8944910402
 O        -4.4614991787       -4.2830664791      -13.7874096294
 C        -4.0384109636       -3.6006684515      -11.5213814912
 C        -5.5834112832       -3.5306264104      -11.0985109670
 C        -6.4559483365       -2.9483330450      -12.1885901633
 O        -6.3965166714       -1.8522996424      -12.5715188448
 C        -7.6530611235       -3.8962780323      -12.8562782193
 C        -8.8390663354       -3.6795514730      -11.9515938885
 O        -9.2932188299       -4.5685096602      -11.2579244604
 C        -9.5690188453       -2.3488669819      -11.8194963223
 C       -10.6054727942       -2.3681876682      -10.6835919632
 C       -11.7809743848       -1.3712248712      -11.0118886650
 O       -11.4917828610       -0.4783130152      -11.8313992856
 C       -13.0000518774       -1.3940204222      -10.1929621562
 C       -13.1214418902        0.0580877078       -9.4372385119
 O       -13.3324263311        1.0525326010      -10.0765012859
 C       -13.1806780817        0.0803147689       -7.9571669905
 C       -12.9948576223        1.5883751272       -7.4557001302
 C       -11.6288912002        2.1514537509       -7.8119589957
 O       -10.6484478901        1.4577076060       -7.8909799744
 C       -11.5028511657        3.7225608716       -7.9771380468
 C       -11.1415032181        3.9314071841       -9.5556414509
 O       -11.9515950095        3.4481606058      -10.3280238692
 C        -9.9899174688        4.7593615501       -9.9599808828
 C        -9.2875697989        4.3051484072      -11.2260423814
 C        -9.2552261552        5.2127227248      -12.4706641940
 O        -9.4184271738        6.3986520434      -12.4392495457
 C        -8.8898110524        4.5379811196      -13.8626154394
 C       -10.2894420550        3.8458142512      -14.1372546148
 O       -10.5272423826        2.9024401402      -13.3881171790
 C       -11.3883234892        4.2914914770      -15.1146676054
 C       -12.8573131517        4.2747491757      -14.5289046992
 C       -13.6649486438        2.9937698437      -14.8421331596
 O       -13.3407782658        1.9439425661      -14.2308610195
 C       -15.0093892899        2.9215649138      -15.5595280504
 C       -15.9855956578        3.7210060480      -14.5327206506
 O       -15.5178551586        4.0767870001      -13.4560691483
 C       -17.3846122156        4.1585932424      -14.8145113818
 C       -18.0769761963        4.8577820502      -13.6588174811
 C       -18.3189861066        6.3667954916      -14.0535709839
 O       -17.7419304070        6.7331782004      -15.0799003986
 C       -19.1995323149        7.2831049882      -13.1352947316
 C       -18.3193221242        7.7429707819      -11.9709565325
 O       -17.2196609559        7.3200827488      -11.6854184362
 C       -18.7342047144        8.8912022602      -11.0623045781
 C       -19.3911484791        8.6028704406      -13.8878724577
 C       -20.6051387521        6.6317968621      -12.7930298230
 C       -15.0378590923        3.8230228007      -16.7758550060
 C       -15.4278462275        1.4133863882      -16.0298283166
 C        -8.4771470562        5.6477470971      -14.8455512511
 C        -7.7218161958        3.4144396535      -13.8254746060
 C       -12.9163225902        4.4744493779       -7.8193153544
 C       -10.4078373623        4.1082598645       -6.9303133370
 C       -14.1935790990       -1.3994714536      -11.1337475914
 C       -13.0257327257       -2.5583531500       -9.1939987676
 C        -8.0235740861       -3.3316359032      -14.2640466890
 C        -7.2285030402       -5.4374048132      -12.9262363996
 C        -1.4417526516       -2.7880445872      -13.6839863020
 C        -2.0302407211       -5.1591078771      -14.5296236630
 C        -0.2208632159       -5.0566307230       -7.7680595393
 C        -0.6601586366       -2.6154547145       -7.9114172798
 C         4.9175927853       -5.7944383640       -7.4256402726
 C         6.1227378238       -4.5287325979       -5.5402637171
 C        10.8834912457       -6.1105867316      -10.9312312556
 C         9.5441243211       -8.0653979060      -11.2171911742
 C        10.1385336611       -9.9796635713       -4.2656337476
 C         9.1268883752       -7.8993672680       -3.3294748641
 C        12.8697849873       -3.0529780628       -2.6680841248
 C        10.4056285563       -2.8392651526       -3.3267992419
 H        14.1484470453       -3.1620071647       -5.6787679972
 H        13.7572376248       -1.6604366551       -4.6329457633
 H        13.4301834567       -1.6573771716       -6.2545397339
 H        13.1227967368       -5.5318680596       -2.2589100849
 H        13.4173871107       -6.0072817390       -3.9470369804
 H        11.5128946724       -7.5406442388       -2.1758826878
 H        12.8988615523       -8.1042308691       -2.6896410039
 H         9.6365700183       -9.8905876821       -7.0818545920
 H        10.8804712825       -8.7515304263       -7.0430895681
 H         8.1914616094       -8.0051148914       -7.9973298325
 H         9.1386020190       -9.1101940277       -8.9015287015
 H         8.2559476694       -3.9499063888      -11.0026563143
 H         9.2352857978       -4.1656649449       -9.5352811249
 H         6.1378624378       -4.6125080758       -9.9398527380
 H         6.8056314095       -2.9960940265       -9.4232448046
 H         4.0606520551       -2.0409196357       -5.6923912338
 H         3.3526347393       -3.7622851522       -5.6188793739
 H         2.5798748175       -1.5282593524       -7.5381489129
 H         1.4749593663       -2.2325450899       -6.2808834499
 H         0.3700142903       -5.8932803117      -10.3475900872
 H         1.8107859769       -5.1592838942      -10.8130139813
 H         0.6833175220       -5.9189190642      -12.7432870270
 H         0.6164605972       -4.0719375728      -12.8479980759
 H        -3.6257951277       -2.5479289789      -11.5009218584
 H        -3.3888977609       -4.1820941564      -10.8271155232
 H        -5.5782811957       -2.7403190283      -10.3003039481
 H        -5.9439931166       -4.4422957393      -10.6686957941
 H       -10.1517945272       -2.2049214217      -12.7881294293
 H        -8.8436678547       -1.5002767881      -11.8549309462
 H       -10.2332053235       -1.9837583224       -9.6696428191
 H       -10.9751202211       -3.3443755438      -10.4155143823
 H       -12.3438302113       -0.5754431812       -7.5969351477
 H       -14.0613625260       -0.4579080753       -7.5851884115
 H       -13.0573788690        1.7668405686       -6.4014055398
 H       -13.7933259696        2.1768994773       -7.9549358202
 H        -9.2758745161        4.6750734624       -9.2396139789
 H       -10.3783931960        5.7668339106      -10.0217597458
 H        -9.5637425009        3.2432892889      -11.4027338991
 H        -8.2764869921        4.2710138098      -10.9426996524
 H       -11.3021811195        3.5276123429      -15.9552915779
 H       -11.1701001543        5.2436889996      -15.6326911118
 H       -13.3810460935        5.2022904043      -14.8731688136
 H       -12.7073261063        4.3791311709      -13.4723326791
 H       -18.0111471770        3.4188839344      -15.3165823269
 H       -17.1610083578        4.9851549904      -15.5178420708
 H       -17.3499931260        4.9719839127      -12.8563284552
 H       -18.9075201336        4.3339432490      -13.1870052910
 H       -18.3127069875        8.8015024857      -10.0348903383
 H       -19.8177775477        8.8524976597      -10.9568591102
 H       -18.5047601732        9.9445738918      -11.3900667995
 H       -18.3832067584        8.9686471227      -14.0853267991
 H       -19.9042692288        9.3549512646      -13.3801008310
 H       -20.1421241861        8.3708978529      -14.7111382215
 H       -20.7833839974        6.2802859957      -11.8230084590
 H       -20.8454466675        5.8553185398      -13.4562586069
 H       -21.4521884046        7.4143714698      -12.9279889045
 H       -16.0635117236        3.9876152041      -16.9599059615
 H       -14.5252022252        3.3269896099      -17.5734369099
 H       -14.5916644114        4.7779578874      -16.6148030112
 H       -14.4492805868        1.0073208522      -16.1000905331
 H       -15.8975193483        1.4811727967      -17.0037392392
 H       -16.0217516819        0.8340366029      -15.2914997844
 H        -8.3413719339        5.3226453981      -15.9216583987
 H        -7.5334123252        6.0899399201      -14.4823557180
 H        -9.3080868363        6.3363187109      -14.9322542279
 H        -7.7369533018        2.7554369765      -12.9903088321
 H        -6.7422620686        3.9285916086      -14.0146067458
 H        -7.9303191281        2.8362215823      -14.7166026767
 H       -13.3649124402        4.4512169453       -6.8851676242
 H       -13.6040821769        4.1372530204       -8.6399237977
 H       -12.7463076355        5.5328347520       -7.9176092741
 H       -10.7287354235        3.9373984554       -5.9212631393
 H        -9.9622098712        5.0990566856       -7.0101941202
 H        -9.4302428763        3.5188578106       -7.1456678657
 H       -14.2722609506       -0.5959641836      -11.7530359975
 H       -15.1496132872       -1.2838922876      -10.5390467776
 H       -14.3711965665       -2.3683505360      -11.6125883683
 H       -12.8058636299       -3.5217080234       -9.6883439255
 H       -14.0282938164       -2.6570649326       -8.7569287582
 H       -12.2382126476       -2.5326618800       -8.4558508383
 H        -9.0255331449       -3.7734523885      -14.3983209412
 H        -7.2274752639       -3.6616928766      -14.9120176193
 H        -7.9363359532       -2.2268684052      -14.2511358105
 H        -7.8861533789       -5.8615692868      -13.6931595778
 H        -7.2461111546       -5.8962026421      -11.9218447093
 H        -6.1984821715       -5.5553641804      -13.2233650188
 H        -0.7890986006       -2.4740684305      -12.8961605726
 H        -2.2351736637       -2.0398851530      -13.8784242577
 H        -1.0034085367       -2.7231461896      -14.6828003889
 H        -1.0200834432       -5.3278612087      -14.8520406547
 H        -2.5835032031       -4.7055093772      -15.4211728203
 H        -2.3369301950       -6.1001720425      -14.3348907909
 H        -1.1850677818       -5.2227145900       -8.1736320550
 H        -0.2638274592       -4.9897888013       -6.6759205516
 H         0.4048139174       -5.9862949885       -7.9437635762
 H        -0.6075040189       -1.6672978132       -8.6011316703
 H        -0.3705462521       -2.3106358039       -6.8994383815
 H        -1.7713699107       -2.8436330478       -7.8344677052
 H         5.3185227478       -6.2609157156       -8.2693751321
 H         3.8513739907       -5.6833920335       -7.5899939998
 H         5.1137024573       -6.5891675342       -6.6859265132
 H         6.8531029343       -3.7490938416       -5.3703764051
 H         6.4855064538       -5.5703044867       -5.2825060422
 H         5.2900894118       -4.2704793860       -4.9395607204
 H        10.7026438539       -5.9546735365      -11.9997856533
 H        11.7443929500       -6.7113359645      -10.9090826370
 H        11.1967771119       -5.1336814537      -10.6325507428
 H         8.5822642088       -8.5585277387      -11.1082634021
 H        10.3752980954       -8.7220708769      -11.0669700544
 H         9.5246795220       -7.7670653018      -12.2753587599
 H        10.4502930147      -10.3673412869       -3.3225687341
 H        10.8226467199      -10.4193947477       -5.0293050227
 H         9.1349436359      -10.4130620085       -4.4876140785
 H         8.1865563453       -8.4362288257       -3.4630982914
 H         8.7881508086       -6.9220285517       -3.5094809785
 H         9.5796608348       -8.1773225725       -2.3704456865
 H        12.7063589849       -2.0651029563       -2.2807108852
 H        13.8739309115       -3.0588827126       -3.0585602124
 H        13.0101745891       -3.4997871907       -1.7055113970
 H         9.9629843399       -3.1404188349       -2.3361248272
 H         9.7067621343       -3.2353927114       -4.0895985154
 H        10.4015638918       -1.7825411836       -3.2589681104
 Na        9.5839020788       -5.0322597874       -6.3813101933
 Na      -12.1732340273        1.6630058400      -12.0717868241
