232

 C        13.4726966660       -2.6354192781       -5.2599262308
 C        12.0207265326       -3.1097857585       -5.0275625126
 O        11.2357753851       -3.2030962769       -5.9426818885
 C        11.6159392951       -3.4321832268       -3.4889954832
 C        11.6699470200       -5.0179842681       -3.5446964823
 O        10.9250745089       -5.5798016074       -4.3430129592
 C        12.7362726205       -5.9714635398       -2.8920429284
 C        12.1985580912       -7.4157224097       -2.9452791918
 C        11.6453555959       -7.7488298330       -4.3817038286
 O        12.3807391264       -7.7281572676       -5.3473121114
 C        10.2236642960       -8.3900819532       -4.4140069109
 C         9.4202144055       -8.1821339319       -5.8254916620
 O         8.5054350955       -7.3621968349       -5.8631055531
 C         9.9419633648       -8.8850124470       -7.0533052278
 C         9.3281186657       -8.4453468360       -8.4167385796
 C         9.8992096913       -7.0511759346       -8.9073811987
 O        10.3296458806       -6.1900957405       -8.1726459567
 C         9.7249621535       -6.6555919200      -10.4739738113
 C         8.1537905067       -6.1009170815      -10.4584968132
 O         7.2703345416       -6.9280801914      -10.3651396714
 C         7.9034684163       -4.6137899332      -10.4618292222
 C         6.6039596837       -4.1900829045       -9.6611537562
 C         6.9665749680       -3.9922584769       -8.1986180813
 O         8.0645688919       -3.5877787492       -7.8061681668
 C         5.8095272609       -4.3096365084       -7.1423148146
 C         4.7075099464       -3.1942893259       -7.3159695881
 O         4.8338625125       -2.2375179030       -8.1153875467
 C         3.5324021482       -3.1659434790       -6.2520149757
 C         2.1807127625       -2.6672123701       -6.9141443739
 C         1.5835981728       -3.6781977492       -7.9371039647
 O         2.1456625494       -4.7592776396       -8.1606802666
 C         0.1636182723       -3.4677742606       -8.4691690343
 C         0.2429403490       -3.5543784088      -10.0647872533
 O        -0.2400409198       -2.6242740329      -10.7150332118
 C         0.7603683289       -4.7686016277      -10.7991823034
 C         0.2935201397       -4.8953048770      -12.2040929148
 C        -1.2793973407       -5.1604143545      -12.3113810411
 O        -1.8293770620       -5.8139476758      -11.4581857570
 C        -2.1040341571       -4.4820108730      -13.4686891387
 C        -3.6019425840       -4.1949052248      -12.9965671557
 O        -4.4926810580       -4.3182376417      -13.7952898453
 C        -3.9176926036       -3.6223558885      -11.6324525586
 C        -5.3769352961       -3.8949535331      -11.2720457735
 C        -6.2807420820       -3.1761065408      -12.3544467681
 O        -6.2371926393       -2.0175172428      -12.5982492649
 C        -7.5387036908       -3.9668445613      -12.9480321698
 C        -8.6995075606       -3.7974639737      -11.8961182016
 O        -8.9372245686       -4.6200149407      -11.0614609246
 C        -9.5317787375       -2.4295171528      -11.8155044055
 C       -10.6816404118       -2.5095354134      -10.7802009159
 C       -11.7175673418       -1.3673171423      -10.8930614495
 O       -11.5162606539       -0.4723229552      -11.6469218191
 C       -12.9953410346       -1.3852528066       -9.9954696889
 C       -13.0685478306       -0.0160093136       -9.3449720455
 O       -13.1303075891        1.0185515077      -10.0330977591
 C       -13.1854860556        0.1269551911       -7.8042450812
 C       -12.8642803298        1.5901900460       -7.3547372657
 C       -11.4339370995        2.1345271326       -7.8493699675
 O       -10.5540033879        1.3377970852       -8.1112676843
 C       -11.1970765394        3.6683842173       -7.8749657175
 C       -11.1081252123        4.0699954773       -9.4976672674
 O       -11.8230423342        3.4639927697      -10.2559115678
 C       -10.0372729337        4.9274943644      -10.0326345658
 C        -9.2555738617        4.3159328023      -11.2086917195
 C        -9.4226850927        5.1339843979      -12.5251533990
 O        -9.8611789970        6.2537448564      -12.4792960296
 C        -9.0577437997        4.3907282697      -13.9003195809
 C       -10.3475801750        3.7460524560      -14.1688830642
 O       -10.5143583470        2.6523474293      -13.6447048931
 C       -11.4546386035        4.4933836673      -14.9519604896
 C       -12.8973616725        4.3777593676      -14.5154457928
 C       -13.6196757025        2.9938746156      -14.8016097560
 O       -13.2200934966        1.9101503721      -14.3954415406
 C       -15.0463419528        3.1493722368      -15.4827320539
 C       -15.9508703145        3.7537409123      -14.2949216138
 O       -15.5976095342        3.7583573173      -13.0891873677
 C       -17.3083026661        4.2143173592      -14.7335032212
 C       -18.1582836459        5.0473003243      -13.7282794089
 C       -18.3980856291        6.5237109191      -14.1120355625
 O       -17.8855579183        6.9553090786      -15.1449396702
 C       -19.2874964080        7.3482246357      -13.1951971108
 C       -18.3255083686        8.0328155808      -11.9167482878
 O       -17.2123248559        7.6053679073      -11.7900997162
 C       -18.9475321875        8.9223073605      -10.8382429816
 C       -20.0469707494        8.4976784741      -13.9364766916
 C       -20.3887584823        6.6035459532      -12.2904601511
 C       -14.7647459633        3.9347494983      -16.8509497167
 C       -15.8209799890        1.7196585994      -15.7561598218
 C        -8.6704627886        5.4487136397      -15.0076824504
 C        -7.8328632395        3.4108240949      -13.7564880435
 C       -12.2484779446        4.4831024190       -7.2154849379
 C        -9.7740616116        3.9100313497       -7.1380631218
 C       -14.0922855163       -1.7470914532      -11.0030631680
 C       -12.8738312792       -2.5742190397       -8.9681381586
 C        -7.9422009019       -3.2200944145      -14.2754487017
 C        -7.2491512359       -5.4447681687      -13.1982930831
 C        -1.7060908020       -3.0709094614      -13.9747017255
 C        -2.0210329590       -5.5884842514      -14.6154804690
 C        -0.7292010234       -4.6401805184       -7.9848892984
 C        -0.5222188689       -2.1828146914       -8.0947331969
 C         5.2829595744       -5.7895994864       -7.3349991614
 C         6.3504354942       -4.1854098866       -5.6770881171
 C        10.7394397772       -5.5778316513      -10.8807815812
 C         9.9687229557       -7.8294224567      -11.5865089026
 C        10.4353218317       -9.9580664248       -4.2905187204
 C         9.2645268010       -8.0139219576       -3.2626970505
 C        12.5361716426       -2.7673816911       -2.5623368701
 C        10.1143647819       -3.0473816548       -3.3662692942
 H        14.2831124890       -2.8937189861       -4.5974106469
 H        13.3069540381       -1.6303756053       -5.5648873493
 H        13.7065901759       -3.0479811097       -6.2302356905
 H        12.8837053988       -5.6525628120       -1.8658469505
 H        13.6830223148       -5.9837335778       -3.4168448922
 H        11.4928631015       -7.5094730496       -2.0486615308
 H        12.8624391697       -8.1961742202       -2.5612263625
 H        10.0534806326       -9.9530016722       -6.8777821984
 H        11.0734813607       -8.6376964208       -7.1440205470
 H         8.2500586613       -8.4399540602       -8.2874172003
 H         9.4351057279       -9.2046789631       -9.1612616821
 H         7.7688172697       -4.2204553090      -11.5002969073
 H         8.7123638081       -4.0618099484      -10.0748131154
 H         5.9408114349       -5.0737144188       -9.6727565124
 H         6.1221606801       -3.3338157593      -10.0582645494
 H         3.7957699863       -2.4440435787       -5.4583722914
 H         3.2661431159       -4.1832793214       -5.9125127586
 H         2.2992617702       -1.7876483427       -7.5151295064
 H         1.3725361297       -2.5284731161       -6.1645750277
 H         0.5975205731       -5.5868606385      -10.0820853391
 H         1.8583012409       -4.6938247539      -10.7388289407
 H         0.6095361589       -5.8405537282      -12.7063648998
 H         0.6864537632       -3.9418307086      -12.7484294076
 H        -3.8705414041       -2.5661540239      -11.8105140528
 H        -3.2085262145       -3.7862263964      -10.9198824537
 H        -5.5347309728       -3.4200845400      -10.2302436430
 H        -5.5061922044       -4.9385300732      -11.1240196374
 H        -9.9982998970       -2.4204748307      -12.7442130934
 H        -8.7788764956       -1.6304533308      -11.9703941964
 H       -10.2439668427       -2.3957515296       -9.8056787098
 H       -11.1268946567       -3.4683507638      -10.7630000314
 H       -12.5864341478       -0.5804044874       -7.2579227698
 H       -14.1760121423       -0.1874017006       -7.3888705425
 H       -13.0135470792        1.5785937101       -6.2639308011
 H       -13.6174778352        2.2391239439       -7.8871849421
 H        -9.3356116920        5.0839038536       -9.2308417071
 H       -10.3508453646        6.0105334958      -10.3671730613
 H        -9.4682628632        3.1821770152      -11.3357821157
 H        -8.1722179402        4.4103498170      -10.8943357346
 H       -11.5568041540        4.0354060506      -15.9462846918
 H       -11.1625927440        5.5090456474      -15.1589265371
 H       -13.4264233696        5.1019482431      -15.1153519124
 H       -12.9788883436        4.5902779836      -13.4447473790
 H       -17.8548958955        3.3197867284      -15.0606712882
 H       -17.0766379306        4.9519352216      -15.5506656349
 H       -17.7793086250        5.0178333202      -12.6704797300
 H       -19.2018175067        4.6960272852      -13.6056577339
 H       -18.0784605040        9.1986408562      -10.2285413132
 H       -19.6964946104        8.4192237064      -10.2714439262
 H       -19.4322707978        9.8209801142      -11.0893087316
 H       -19.3472000546        9.2481218260      -14.3187208287
 H       -20.6301197570        8.9270721043      -13.1469404939
 H       -20.7959120400        8.2300028556      -14.7230441936
 H       -20.0718101433        5.7061032411      -11.7417341465
 H       -21.3118685519        6.4470139742      -12.8788740952
 H       -20.8889080871        7.1804715723      -11.3978524665
 H       -15.5213207505        3.5952607062      -17.5615844588
 H       -13.6962212408        3.7636073350      -17.1102923138
 H       -14.8693474298        5.0448448056      -16.7093063126
 H       -15.6145498976        1.0657726565      -14.9530827892
 H       -15.4830622573        1.3299521221      -16.7446257509
 H       -16.8530189654        2.0522704806      -15.8195177790
 H        -9.3807046152        5.6137770974      -15.7738906653
 H        -7.6659175139        5.1669521110      -15.2832303870
 H        -8.5920670024        6.4455909874      -14.5819231517
 H        -8.2795178031        2.4554389125      -13.5400688189
 H        -7.1520523653        3.6997773042      -12.9170591274
 H        -7.3324250216        3.3369697976      -14.6895359351
 H       -12.4438082852        4.2100282902       -6.2065446041
 H       -13.2610534730        4.4374798704       -7.8356998076
 H       -11.9668805755        5.4356333685       -6.9530821455
 H        -9.7625496493        3.6022488749       -6.1358827728
 H        -9.4833230173        4.9448174719       -7.1719768730
 H        -8.9020730938        3.3548767304       -7.5927468910
 H       -14.4225948426       -0.9264537493      -11.5768601806
 H       -15.0323963317       -2.1913824745      -10.5914916689
 H       -13.7585657737       -2.5214996426      -11.6609094976
 H       -12.7160898636       -3.5125245017       -9.4593549554
 H       -13.8184899091       -2.6133367753       -8.3667371450
 H       -11.9953351411       -2.4854078162       -8.3745381855
 H        -8.7515073642       -3.7439776822      -14.6886278134
 H        -7.0692931445       -3.4504650523      -14.8894854740
 H        -8.0876377530       -2.1267622591      -14.0591147218
 H        -8.1312242935       -5.8521906411      -13.6809744449
 H        -6.9642537857       -6.0242548377      -12.2595244393
 H        -6.3763071044       -5.6433943738      -13.8440958016
 H        -2.4889676015       -2.2861792420      -13.9366620082
 H        -1.2439883620       -3.1211607971      -15.0011265010
 H        -0.8906469538       -2.6921187805      -13.3771584838
 H        -1.0651956700       -5.4600050197      -15.1764099766
 H        -2.9624022566       -5.5847593873      -15.3713634192
 H        -2.1262795016       -6.5997755043      -14.3048039658
 H        -1.7158189218       -4.6786402614       -8.3827992288
 H        -0.8466735636       -4.3697698210       -6.9388811568
 H        -0.2977312164       -5.6848441505       -8.0443739089
 H        -0.0097036961       -1.3128874775       -8.4515651681
 H        -0.6771028983       -2.1256072053       -7.0378440070
 H        -1.3929404435       -2.1310071581       -8.6781202814
 H         6.2003086828       -6.4218823297       -7.3705479729
 H         4.7596521325       -5.9257958710       -8.2701170220
 H         4.6388774991       -6.2563949605       -6.5370704505
 H         6.3732236564       -3.0756627132       -5.5551274352
 H         7.3359930876       -4.7075278059       -5.6349381995
 H         5.7887824742       -4.6050555418       -4.8767021953
 H        10.5534320067       -5.0969710623      -11.8605331108
 H        11.8187459710       -5.8420414086      -10.9307460099
 H        10.8449936855       -4.7810683773      -10.1635845662
 H         9.1349003685       -8.5853843589      -11.5749864207
 H        10.9419365309       -8.2689300175      -11.4488667012
 H         9.9938958380       -7.3915497074      -12.6136520759
 H        10.9676481933      -10.1843315200       -3.4303778099
 H        11.0570586276      -10.2646101849       -5.1180064263
 H         9.5792726303      -10.6599333726       -4.2761922395
 H         8.2193226717       -8.0600941211       -3.6083012655
 H         9.4247457923       -6.9911674619       -2.9605311971
 H         9.5531486367       -8.6411099273       -2.3905405739
 H        12.9902054038       -1.8185835772       -2.7982722681
 H        13.3976664798       -3.4181987982       -2.2855607346
 H        12.2305318848       -2.5673783398       -1.5818480108
 H         9.5714306464       -3.5731868335       -2.5569830575
 H         9.7009350479       -3.3956881987       -4.3065565253
 H         9.8361209376       -2.0418260028       -3.2485452232
 Na        9.6838076507       -5.1483664166       -6.1861962357
 Na      -12.3030818949        1.9879469615      -12.1986473325
