232

 C        13.3290892229       -2.4722270782       -5.2092556530
 C        11.9348694775       -3.0214901078       -5.0122271138
 O        11.2025722612       -3.3393549006       -5.8991960437
 C        11.4329306283       -3.3696427828       -3.4796873829
 C        11.1587735217       -4.9384157071       -3.4628091848
 O        10.1941628969       -5.4339019235       -3.9960836500
 C        12.1724780054       -5.7651718166       -2.6701374468
 C        11.8031246768       -7.2988994465       -2.7484661159
 C        11.7160133210       -7.9227864609       -4.2198632981
 O        12.6457751128       -7.7494967697       -4.9681128214
 C        10.4452747354       -8.6412390875       -4.6758769971
 C         9.9209385670       -8.0832204008       -6.0758162144
 O         9.0188760572       -7.2513421462       -6.0765371798
 C        10.5294341667       -8.6299627879       -7.3700040971
 C         9.8131756166       -8.1454750166       -8.6843741316
 C        10.1997603261       -6.6387050153       -8.9961918031
 O        10.6558961833       -5.8627616888       -8.1910827218
 C         9.6804290743       -6.0274095327      -10.3489393827
 C         8.1474357154       -5.9106536344      -10.1375322089
 O         7.4907727857       -6.7634489644       -9.5651205669
 C         7.3607771519       -4.7766758319      -10.8033030131
 C         6.3805347557       -4.2034341399       -9.7380699778
 C         6.9459289672       -4.3465161163       -8.3606302410
 O         8.1604389611       -4.3371027567       -8.1396148841
 C         5.9706656545       -4.3465828206       -7.1140743479
 C         4.6767499830       -3.6081357304       -7.5956358826
 O         4.8205999515       -2.5684071886       -8.2422149282
 C         3.3339433067       -4.0627599822       -6.9117027625
 C         2.2859153877       -3.1364922773       -7.4740853313
 C         0.9427349355       -3.8869117907       -7.8047546333
 O         0.8227971568       -5.1091753938       -7.6872246405
 C        -0.1720975122       -3.0470475307       -8.5674815849
 C        -0.1060138787       -3.3380939005      -10.1393014675
 O        -0.4811075155       -2.5373129253      -10.9853110133
 C         0.6353948775       -4.6177069095      -10.6947864808
 C         0.4018294344       -4.7418016005      -12.1595345904
 C        -1.0515368047       -5.3708382970      -12.4623380276
 O        -1.5008303515       -6.2565001438      -11.7592446466
 C        -1.8198657157       -4.9154288704      -13.7203886448
 C        -3.4615651547       -4.7880905634      -13.4043846875
 O        -4.3173024749       -5.0134698163      -14.1973858242
 C        -3.7813498977       -4.3034804391      -11.9587217203
 C        -5.3263972253       -4.2897299248      -11.6191108559
 C        -6.1678629806       -3.3724971371      -12.5136271832
 O        -6.0081139433       -2.2228316878      -12.7604777588
 C        -7.5191965650       -4.0210475465      -13.0563109816
 C        -8.6195648913       -3.7534511967      -11.9002175789
 O        -8.4237108695       -4.1872810978      -10.7948036130
 C        -9.7152479816       -2.6983114641      -12.1744278024
 C       -10.6238796924       -2.6261244625      -10.9191339043
 C       -11.4303474130       -1.3085039965      -10.8226024895
 O       -10.9836051207       -0.2889736283      -11.3080382149
 C       -12.7072809624       -1.3992913663       -9.9278457415
 C       -13.1158859030        0.0636885989       -9.3669845502
 O       -13.3243451087        0.9307108138      -10.2532383849
 C       -13.1193852052        0.4635873332       -7.8992215097
 C       -12.4165881651        1.8480742989       -7.5683967773
 C       -10.9306586872        1.8576620536       -7.9408205851
 O       -10.3662414567        0.8094502078       -8.0655097742
 C       -10.2897806154        3.3599139416       -8.1688916043
 C       -10.6161419621        3.8624117662       -9.6395135544
 O       -11.3339876793        3.1789477477      -10.3511655052
 C       -10.1086580643        5.1906911129      -10.1551422680
 C        -8.9834283338        4.9080982809      -11.2490466602
 C        -9.4406512059        5.2407176118      -12.6398972663
 O        -9.9732583472        6.3282476490      -12.7734762172
 C        -9.2300620021        4.3279069301      -13.8777095103
 C       -10.5681186093        3.5420396600      -13.8929443967
 O       -10.6491277727        2.3761445164      -13.4495363702
 C       -11.8145471182        4.3532479918      -14.3063915080
 C       -13.0971303246        4.0550103169      -13.3815261443
 C       -14.0074392536        2.8914106349      -13.9069204860
 O       -13.9911773533        1.7591321095      -13.4337421734
 C       -15.0906799466        3.2159915674      -15.0241332815
 C       -16.1975636513        3.9851319140      -14.2162230829
 O       -16.5139939682        3.4893454737      -13.0837610798
 C       -16.9850083064        5.2011879633      -14.7269327965
 C       -18.0177779557        5.5135547486      -13.6200903011
 C       -18.9774236399        6.6809399415      -13.9986344399
 O       -19.0588480028        7.1530385191      -15.1478851142
 C       -19.5884530641        7.4717339508      -12.8014092682
 C       -18.5696495692        8.3022481397      -11.8920381570
 O       -17.3705938237        8.0799362111      -11.7946748402
 C       -18.9653251111        9.3920194953      -10.9335659230
 C       -20.6095452302        8.4971426702      -13.4442147833
 C       -20.3603841837        6.4934901426      -11.8533311004
 C       -14.5168618896        3.9685543763      -16.2292502456
 C       -15.7332645809        1.8977880985      -15.6569621689
 C        -9.1196623584        5.2168807944      -15.1868168999
 C        -8.0874658011        3.2319062363      -13.7864287937
 C       -10.8018232822        4.3055666290       -7.1331526456
 C        -8.7149399207        3.4241596190       -7.9700659897
 C       -13.8006850270       -1.7195345056      -10.9237312092
 C       -12.6352553220       -2.4681545350       -8.7713325394
 C        -7.8361815985       -3.2425524286      -14.3015021756
 C        -7.5411017365       -5.5220468479      -13.2182879619
 C        -1.4465389481       -3.5549066725      -14.3490132794
 C        -1.8055123189       -6.0277930166      -14.8283990012
 C        -1.4418582868       -3.6893483392       -7.9919777242
 C        -0.1051619592       -1.4768853939       -8.4965973064
 C         5.8910825302       -5.7420443262       -6.4447243474
 C         6.5517739201       -3.2973627632       -6.1720352373
 C        10.3099876530       -4.6914155780      -10.7174544545
 C         9.8491198003       -7.0196349110      -11.6003812091
 C        10.8298010224      -10.1535157475       -4.9605325648
 C         9.2940384302       -8.7230560507       -3.6972218838
 C        12.3214250216       -2.8675812541       -2.3459223594
 C         9.9473248843       -2.5970258849       -3.4846214833
 H        13.1103200011       -1.5776975347       -5.8417631970
 H        13.8065890681       -3.0881951600       -5.9143736209
 H        13.9513172564       -2.3352434751       -4.3540169168
 H        12.2886145122       -5.4393782286       -1.6650262639
 H        13.2040226239       -5.5721046793       -3.1069752020
 H        10.8189546547       -7.2949769402       -2.2239670891
 H        12.6117496175       -7.8003125899       -2.3060874333
 H        10.4665555144       -9.6753498592       -7.4444009890
 H        11.6119992846       -8.4747022116       -7.2867015703
 H         8.6517313151       -8.0854513365       -8.5789319896
 H         9.9052530203       -8.8949546220       -9.4771074102
 H         6.6440244923       -5.0002521474      -11.6544756217
 H         8.0599364211       -4.0322996317      -11.1040367913
 H         5.4823952008       -4.8740792721       -9.7336411701
 H         6.1427791884       -3.1531325595      -10.0626734842
 H         3.4871903090       -3.9472366677       -5.8410857907
 H         3.1141705676       -5.1438932656       -7.0487726955
 H         2.6053396546       -2.6217572385       -8.4059526896
 H         2.0278199326       -2.3194789481       -6.8049343655
 H         0.2772559206       -5.4281809432      -10.1171417410
 H         1.7253633435       -4.5373971371      -10.4673187974
 H         1.0184841747       -5.3744286405      -12.6964451217
 H         0.5724762466       -3.7653246165      -12.5880444901
 H        -3.3122780176       -3.2436078458      -11.7687343531
 H        -3.1779733943       -4.8504858445      -11.2226703239
 H        -5.3391174833       -3.8829328325      -10.5963302379
 H        -5.6974392269       -5.2796068264      -11.5360612737
 H       -10.3026822558       -2.9374255887      -13.0374330514
 H        -9.2893377387       -1.6382368838      -12.2487118886
 H       -10.0669146786       -2.4434291756       -9.9847171343
 H       -11.3466715405       -3.4871903424      -10.9854127738
 H       -12.7333599782       -0.3296368176       -7.3210335526
 H       -14.1856965141        0.4940818492       -7.5058156783
 H       -12.4243629147        2.0051701266       -6.4798720981
 H       -12.9939497567        2.6072377604       -8.0702879164
 H        -9.6910070855        5.7605936952       -9.3267681401
 H       -10.9144630359        5.8311195528      -10.4874230739
 H        -8.6857868625        3.9075347163      -11.1441034891
 H        -8.0970713028        5.4907203057      -11.1278988267
 H       -12.0092993851        3.9901181708      -15.3466501518
 H       -11.6330092652        5.4737351407      -14.3369713953
 H       -13.6983602739        4.9486384522      -13.3738409025
 H       -12.8478248304        3.8536468978      -12.3037173091
 H       -17.5326048646        4.8164319807      -15.5784936078
 H       -16.2907906601        6.0487130642      -14.8783892898
 H       -17.5100923413        5.5597279428      -12.6460374829
 H       -18.6644072589        4.6374412362      -13.6033507997
 H       -20.0252139379        9.4274620313      -10.5772421412
 H       -18.7374963530       10.3955518069      -11.3704895106
 H       -18.3412964535        9.2293823697      -10.0563146039
 H       -20.2362524286        8.8901167667      -14.3999083436
 H       -20.9172756119        9.1938179855      -12.7010004542
 H       -21.4442981506        7.8099435787      -13.7687104269
 H       -19.8322989280        5.6076525436      -11.6990455946
 H       -21.2622104017        6.1388455966      -12.2556468600
 H       -20.5204195595        6.9699270026      -10.8222849435
 H       -15.2949751196        4.0393285773      -16.9833752884
 H       -13.6786232393        3.4451889579      -16.7085507638
 H       -14.3053347544        5.0008969474      -15.9146822377
 H       -15.7584003417        2.0489244964      -16.6830234644
 H       -16.7306596240        1.8434145309      -15.2275959895
 H       -15.0961467245        1.0344902575      -15.4679033553
 H        -8.1379294821        5.6253354246      -15.2279380711
 H        -9.8689005304        6.0280694804      -15.2872877115
 H        -9.4187096308        4.5758770574      -16.0253169817
 H        -8.5419409724        2.5231279468      -13.1017950803
 H        -7.1370234295        3.5518480737      -13.3414516320
 H        -7.9211303907        2.7345439047      -14.7045278285
 H       -10.8333821894        3.8317178972       -6.1577320106
 H       -11.8340523172        4.6489498133       -7.1474461383
 H       -10.3741957127        5.3149468904       -7.2325484485
 H        -8.3988498586        3.3933526135       -6.9429579517
 H        -8.2392632914        4.3548761677       -8.3274130320
 H        -8.2839097577        2.4975914457       -8.4939203966
 H       -14.1146774779       -0.9173378878      -11.5090442508
 H       -14.7063016606       -2.1360873011      -10.3666784890
 H       -13.5105433964       -2.4080806099      -11.6939575908
 H       -12.3821998338       -3.4067966270       -9.2094666723
 H       -13.6250577323       -2.6750516825       -8.2509583093
 H       -11.9998071014       -2.1142637721       -7.9802720160
 H        -8.6857414611       -3.6868341774      -14.8272604629
 H        -6.8943944926       -3.2847605602      -14.9408292245
 H        -8.1044268577       -2.1637200936      -13.9735253418
 H        -8.3776817064       -5.8975490196      -13.7983591732
 H        -7.6886431727       -6.1424757741      -12.2912861933
 H        -6.6832962725       -5.8677468857      -13.7940218543
 H        -2.3290084126       -3.1173532073      -14.8853729627
 H        -0.7121567915       -3.6478569364      -15.2293704668
 H        -1.0431642497       -2.8829721148      -13.5788275358
 H        -0.9927315033       -5.8552799805      -15.5280074104
 H        -2.6928280512       -6.0241826160      -15.5112798223
 H        -1.6876224298       -6.9625721153      -14.4424940893
 H        -2.3209087303       -3.3762257420       -8.5647499199
 H        -1.6292094556       -3.3034482035       -6.9736234266
 H        -1.3832114649       -4.8308985780       -7.8802400304
 H         0.9697320466       -1.1895498460       -8.6135233544
 H        -0.2982291011       -1.3121607547       -7.4099915164
 H        -0.9201799095       -1.0571395059       -9.0789330043
 H         4.9868820463       -6.3516402388       -6.5591711024
 H         5.9088524886       -5.5776517574       -5.3748339246
 H         6.8272939846       -6.2357141403       -6.7210998141
 H         6.9849937012       -2.4398935428       -6.7746494421
 H         7.3784489678       -3.7173391130       -5.5735502853
 H         5.6958012130       -3.0221607650       -5.5710844050
 H         9.7261002510       -4.1236024074      -11.4167501865
 H        11.3220338166       -4.8164428949      -11.1484595004
 H        10.3644710164       -4.0105472612       -9.9249260543
 H         9.3564117737       -8.0025504139      -11.3850664594
 H        10.9050797029       -7.1495861007      -11.8110116278
 H         9.3436579375       -6.4644059892      -12.3902622065
 H        11.3593791928      -10.5333963490       -4.1262325042
 H        11.5051822094      -10.3202220361       -5.7885884673
 H         9.8910948626      -10.7327686500       -5.0950244096
 H         8.3580396378       -9.0564797601       -4.1310508722
 H         9.2541208680       -7.8583190204       -3.0827790215
 H         9.5263281573       -9.5460741897       -3.0123273801
 H        12.4534078632       -1.8022464344       -2.2054169316
 H        13.4039357214       -3.1627285367       -2.3264721414
 H        11.9702185929       -3.1932056353       -1.4132047799
 H         9.2224186463       -3.0218761170       -2.7467272373
 H         9.3999276446       -2.6833451660       -4.4317431061
 H        10.0721343238       -1.5407766359       -3.3608414741
 Na        9.4908739878       -4.9758598223       -6.4196982124
 Na      -12.2321156506        1.7283964360      -11.8521848124
