232

 C       -18.2241970248       -6.2574748985       -2.8360354077
 C       -18.0774749991       -7.7305576952       -2.4130216519
 O       -17.1688627317       -8.3547013603       -2.9396896324
 C       -19.3049016021       -8.3432890567       -1.6318838039
 C       -18.4714963383       -9.3008047489       -0.5833330334
 O       -18.0417733363      -10.3984960215       -0.9288808617
 C       -18.2785176343       -8.8295321225        0.8412761124
 C       -16.8809756383       -8.8515831183        1.4285522538
 C       -15.9444351125       -7.9567317687        0.6986217456
 O       -16.3750381484       -6.9991732831        0.0531059081
 C       -14.3908313855       -8.2944134221        0.6122014350
 C       -14.4254370008       -9.2708336583       -0.6277108771
 O       -15.0625412035      -10.3021560912       -0.5119542798
 C       -13.8722758057       -8.8006942038       -2.0267115125
 C       -12.9894372950      -10.0001809083       -2.6300429285
 C       -13.6312649149      -10.7345957232       -3.8351076583
 O       -14.7656423054      -11.2184827293       -3.8197680556
 C       -12.6486078548      -10.8796223382       -5.0717424473
 C       -12.6034518503       -9.3574385969       -5.7482759979
 O       -12.6393518075       -8.3715359810       -5.0171453039
 C       -12.5415798969       -9.2871824000       -7.3739301329
 C       -12.1869455549       -7.9819923716       -8.0189240100
 C       -13.1479945906       -7.6042567319       -9.2239473625
 O       -13.8939027309       -8.3931715140       -9.7302472558
 C       -13.2748682179       -6.0879921649       -9.7630089317
 C       -11.9462496126       -5.3283884555       -9.2802634951
 O       -10.9634675848       -5.9867585379       -9.1254510757
 C       -11.7897557098       -3.8472122901       -9.1179437433
 C       -10.6080283591       -3.2317975825       -9.9769930930
 C       -10.6335404579       -1.7379797506      -10.0244743385
 O       -11.6624641727       -1.0878471310      -10.0808524714
 C        -9.2839229230       -0.9697315781       -9.9210135253
 C        -8.1868348566       -1.5074593725      -10.9057450380
 O        -8.3580417267       -2.4088635984      -11.7111821087
 C        -6.7669433316       -0.9812119146      -10.9111089600
 C        -6.0017867540       -1.6233827802      -12.0055302451
 C        -4.8045498169       -0.6606411573      -12.3947933980
 O        -4.7639163021        0.4850566860      -12.0043165992
 C        -3.5694122611       -1.1125870514      -13.1553247149
 C        -2.3861792230       -1.4222311782      -12.1279006257
 O        -1.9891014169       -2.5741691284      -12.0711903512
 C        -1.8088485144       -0.2743750080      -11.1161042630
 C        -0.5409452182       -0.7693049154      -10.4522522316
 C        -0.2798238088       -0.0416921657       -9.1838795510
 O        -0.7946262489        0.9926089282       -8.9470391557
 C         0.8822705398       -0.6550747862       -8.1659060896
 C         2.3423817649       -0.1876811908       -8.5712392734
 O         3.0974857917       -0.8866066056       -9.1644140773
 C         2.8217874349        1.2249750213       -8.2790645016
 C         4.1319264036        1.6491437420       -8.9372641571
 C         4.3574820565        3.1639398034       -9.0672903990
 O         3.6751387701        3.9760030008       -8.4459064794
 C         5.6563655027        3.7157251339       -9.9265342784
 C         5.2379909289        4.2784842413      -11.3240274887
 O         5.7492302688        3.9718841551      -12.4188395391
 C         4.1253227314        5.3573045220      -11.4360804063
 C         4.6163478823        6.7056004514      -11.9132550145
 C         4.4622058182        7.0672795522      -13.3922828784
 O         3.9744241723        6.2494716275      -14.1916329247
 C         5.2169383337        8.3376240751      -13.9475172652
 C         6.0233614645        7.7394028019      -15.1991330521
 O         5.8316245220        8.3047798699      -16.2561135349
 C         7.1070118358        6.6849342474      -15.0191235359
 C         7.7768397534        6.3133217401      -16.3742861360
 C         7.0643946202        5.1867285910      -17.1744566797
 O         5.9642297286        4.8175353870      -16.8710628838
 C         7.7276096921        4.5155115408      -18.4444776509
 C         9.1868435444        3.9966727960      -18.1730373669
 O         9.6074239303        3.9874316437      -17.0345572711
 C        10.0254036540        3.6158910907      -19.4598286301
 C        11.0511768762        2.5572739925      -19.1065463872
 C        10.4264790467        1.2637872659      -18.6243884111
 O         9.3867447336        0.9610021798      -19.1395258031
 C        11.1141282559        0.2433639056      -17.5964237969
 C        10.5061528921        0.6275158400      -16.1550760713
 O        11.1357889255        0.3448222483      -15.2035606027
 C         9.1162497803        1.2731943044      -16.2152470658
 C         8.0534875889        0.6812820565      -15.1624926502
 C         6.8243062709        1.4714377290      -15.0052627994
 O         6.9064824807        2.6829174707      -14.8396589022
 C         5.4387444407        0.6617378499      -14.6779032157
 C         4.3098704856        1.3984926621      -15.3827999990
 O         4.0604723077        2.5564838521      -15.2956999992
 C         3.4494083612        0.4759370838      -16.1907385795
 C         5.6384609236       -0.8597538881      -15.0049390805
 C         5.5131939284        0.8495880874      -13.1615557232
 C        10.7619967056       -1.2175189906      -18.0482371830
 C        12.6695460296        0.3788681391      -17.6535380038
 C         6.8993931957        3.2700229495      -18.8306035754
 C         7.5767893597        5.6543719547      -19.5274333079
 C         4.2397677850        9.3586632268      -14.6016697176
 C         6.0543155299        9.0866198749      -12.9000497071
 C         6.2033779398        5.1484250448       -9.3229915916
 C         6.7666958980        2.7036448580      -10.0716825670
 C         0.5024434973       -0.0208841464       -6.6830397061
 C         0.8244980319       -2.1860299934       -8.2598084639
 C        -3.9869570083       -2.3239884008      -14.0185115931
 C        -3.0760059422        0.0959377700      -14.1057664435
 C        -9.5897054291        0.5858595007      -10.3879067919
 C        -8.9399415144       -1.1849132222       -8.4730019627
 C       -13.0243300455       -6.2133251065      -11.2834193621
 C       -14.6934781775       -5.5148611474       -9.5254369347
 C       -11.2842810816      -11.1730024638       -4.5287064943
 C       -13.2862098043      -11.9798371744       -6.0548553759
 C       -13.4730583669       -7.0429276340        0.4606296979
 C       -13.9082559055       -9.0945791679        1.8191184105
 C       -20.3248782864       -7.4084557181       -0.9851974312
 C       -19.9898040326       -9.3019518518       -2.5596139681
 H       -18.8907306104       -5.7451770667       -2.1953971437
 H       -18.4332242275       -6.1866304313       -3.9230124051
 H       -17.2154356916       -5.8495186964       -2.6411714374
 H       -18.8599721623       -9.4707690318        1.4710229517
 H       -18.6386780816       -7.8381996657        1.0312064775
 H       -16.4374987180       -9.8355090369        1.3723064279
 H       -16.8912144865       -8.5391632688        2.4484503395
 H       -13.2393650105       -7.9213808003       -1.8472327356
 H       -14.6907727746       -8.5620784950       -2.7446051629
 H       -12.8527112281      -10.7062616926       -1.9092884366
 H       -11.9965081414       -9.6239727767       -2.9383531829
 H       -13.5836009043       -9.4985407117       -7.4906983939
 H       -11.9184630948      -10.1276133753       -7.7949575198
 H       -11.0999999654       -8.0789447851       -8.3861436352
 H       -12.1062337145       -7.1936279471       -7.2437787568
 H       -11.7765192264       -3.7397619557       -7.9829790490
 H       -12.5905579457       -3.1436937610       -9.2959981508
 H       -10.4390189114       -3.7300782702      -10.9109793618
 H        -9.6556948476       -3.5671331526       -9.5308340139
 H        -6.2966495605       -1.2123366069       -9.9745201953
 H        -6.6519859729        0.1644415470      -11.1996762380
 H        -6.6442403267       -1.8576067102      -12.8512989099
 H        -5.6924409529       -2.6784800265      -11.8191578212
 H        -2.6530992617       -0.0900623460      -10.3889144525
 H        -1.7483199969        0.6772395367      -11.6524341624
 H         0.3088885374       -0.4555191609      -11.1465997808
 H        -0.5334544867       -1.7831976750      -10.3448988279
 H         2.7152768752        1.2924164028       -7.2492752870
 H         2.1640610669        2.0152193409       -8.6357431617
 H         4.3052221597        1.1734679100       -9.9539804898
 H         5.0967978519        1.2736917901       -8.5334897078
 H         3.4443693492        5.5323622320      -10.6636836529
 H         3.4582235090        5.0601975723      -12.1579194765
 H         5.6572962751        6.8383534056      -11.5668742302
 H         4.0811582220        7.5210685776      -11.3798580164
 H         6.6655884254        5.7762425783      -14.5837912656
 H         7.8634916579        7.0032670094      -14.3356255374
 H         8.9233508554        6.0108291439      -16.2617752916
 H         7.7341342905        7.1297520133      -16.9368823648
 H        10.5811507847        4.5715783405      -19.7079499383
 H         9.3698737074        3.3043065995      -20.2283458448
 H        11.7586705275        3.0232162630      -18.4558061668
 H        11.6500615662        2.3410002866      -20.0378270146
 H         8.5930076561        1.1340682288      -17.1022267373
 H         9.2468060083        2.3846303868      -16.1612762274
 H         8.5085783667        0.6839334562      -14.2102044563
 H         7.7692056980       -0.3458033260      -15.5281760156
 H         3.9374298917        0.0135468872      -17.0771868917
 H         2.3962893683        0.9514983090      -16.3540075213
 H         3.3718796663       -0.2615486379      -15.4497790887
 H         4.8379364444       -1.4835281313      -14.5529736118
 H         6.4821155528       -1.2767972456      -14.5235363865
 H         5.8729332380       -0.8352939830      -16.0590468024
 H         4.5801348909        0.2187062253      -12.8163295612
 H         5.4832134984        1.8943198197      -12.8420917797
 H         6.4636336359        0.3433591067      -12.7979428843
 H        10.6194339401       -1.8986628480      -17.1672268219
 H        11.5978735481       -1.7028842541      -18.5827524161
 H         9.8694412601       -0.8766503563      -18.5793266338
 H        13.0040219290        0.1307267984      -18.6794278708
 H        13.0381753962       -0.4384590885      -17.0212558256
 H        13.0586152257        1.4040942009      -17.4566663786
 H         6.1640470524        3.5139547787      -19.6940621314
 H         6.3894188628        2.9135169620      -17.9239111805
 H         7.6461617221        2.5126600498      -19.1864913225
 H         7.5722506717        6.6740914699      -19.0913784444
 H         6.6652621773        5.4811617913      -19.8929465743
 H         8.4222475583        5.6358039325      -20.2544249280
 H         4.7589011695       10.2316981610      -14.9080436259
 H         3.4305340851        9.5740508110      -13.8555741345
 H         3.6841019926        8.9505551800      -15.3927138727
 H         6.3865764408        9.9737953200      -13.3922748428
 H         6.9321148003        8.5002906927      -12.8158333276
 H         5.6117047042        9.3418805670      -11.9097114448
 H         6.8721788240        4.7453071624       -8.5412984548
 H         5.3649839235        5.7374751807       -9.0974701549
 H         6.8947260768        5.4963009663      -10.1359403901
 H         7.5675627087        3.1975371875      -10.6937254351
 H         6.2953927034        1.7902397746      -10.5457475983
 H         7.2867617694        2.4518301885       -9.1175039705
 H         0.6618030771        1.0434554658       -6.6790540969
 H         1.1007326358       -0.4203587623       -5.9612427668
 H        -0.4889027388       -0.1246543335       -6.4773014797
 H        -0.1418046272       -2.4734647241       -7.8136328910
 H         1.4747755432       -2.7758026982       -7.5442998742
 H         1.0390849903       -2.6586596910       -9.2141057075
 H        -3.6687557241       -3.1945053323      -13.4141024675
 H        -3.4145309816       -2.2362407318      -14.9532422355
 H        -5.1230000953       -2.4288822608      -14.1141431003
 H        -2.1769933225       -0.1279412240      -14.5608605462
 H        -2.7682745331        0.8899159245      -13.4344387347
 H        -3.8563632356        0.4054774204      -14.8345983913
 H       -10.4524397530        0.9713283239       -9.8869045182
 H        -9.8668692978        0.7574509901      -11.4971412281
 H        -8.6932117165        1.2442598982      -10.2970668175
 H        -9.7577190445       -0.8601162302       -7.8743656642
 H        -8.1010692507       -0.4827751008       -8.3630357318
 H        -8.6262398537       -2.2352886456       -8.2228415711
 H       -12.8971278809       -5.2437289676      -11.7568659611
 H       -13.7623505445       -6.8438660836      -11.7405448375
 H       -12.0500186980       -6.7052512923      -11.5083817605
 H       -15.4173410542       -6.2526881349      -10.0051440158
 H       -14.6943481991       -4.5160040895      -10.0154137659
 H       -14.8583409353       -5.2508622353       -8.5247946899
 H       -10.8208351235      -10.2216742220       -4.2283425102
 H       -10.5542438576      -11.5753190577       -5.2433245814
 H       -11.2632480009      -11.8758709469       -3.6914720560
 H       -14.2751573907      -11.6786779847       -6.2290684484
 H       -13.2658249006      -12.8220729376       -5.4494645385
 H       -12.7167457615      -12.1734009073       -6.9925233828
 H       -13.8065675128       -6.3986173504       -0.3654487320
 H       -12.4598536150       -7.2786133613        0.1072693862
 H       -13.4077135508       -6.4256270134        1.3731443263
 H       -14.2457441670      -10.1170773069        1.7439886682
 H       -14.2291981886       -8.6335199873        2.7866712394
 H       -12.7519956665       -9.2610371436        1.8566408229
 H       -20.0543249963       -6.7057799272       -0.0916980127
 H       -21.1377845502       -8.0014261270       -0.4557733840
 H       -20.8735175706       -6.8992307728       -1.7447558715
 H       -20.6388262310       -9.9700845668       -2.0302832467
 H       -19.1970853578       -9.9569422971       -3.0180208214
 H       -20.6244901670       -8.7967924075       -3.3310080060
 Na      -16.3109867544      -10.5201341841       -2.4457922055
 Na        5.0893814794        4.4326774581      -14.9353081776
