232

 C        13.2229252737       -2.2486566952       -5.1631406879
 C        11.8523883556       -3.0225002527       -4.9774346909
 O        11.3667113819       -3.4405731529       -6.0079301997
 C        11.2969516808       -3.3098832892       -3.6193989106
 C        11.0797108101       -4.8820983050       -3.4738956836
 O        10.1411470071       -5.2733040116       -4.0993127503
 C        12.0056354806       -5.8245329192       -2.7713914423
 C        11.2914639158       -7.2273957208       -2.7890127466
 C        11.5415820502       -7.9020102630       -4.1782259333
 O        12.5740713591       -7.6836586938       -4.7618722527
 C        10.4248053705       -8.8823628115       -4.8188379132
 C        10.0700086633       -8.1386737823       -6.1318069958
 O         9.0614701782       -7.4408882421       -6.1514864175
 C        10.9021177391       -8.3455708671       -7.3895215697
 C        10.2723709652       -8.0882993460       -8.8058880086
 C        10.4447400962       -6.5700941992       -9.2350701821
 O        11.0991791108       -5.9170394558       -8.4701551798
 C         9.7905722528       -5.9994578317      -10.4719505734
 C         8.2079751281       -5.8187148308      -10.1372430236
 O         7.7049594062       -6.8048948467       -9.6229819432
 C         7.4171683023       -4.6740761498      -10.6133894529
 C         6.3566887555       -4.3380832120       -9.5727596614
 C         6.9512208747       -4.1781454174       -8.1567663147
 O         8.1403421524       -4.3519990950       -7.9260694093
 C         5.9636874972       -4.0623207636       -6.9856373235
 C         4.5702425632       -3.4708625771       -7.4894833577
 O         4.5669051710       -2.5913959058       -8.3972506889
 C         3.2092201163       -4.2227934437       -7.2003775583
 C         2.0705004962       -3.2546452551       -7.5813471316
 C         0.6222477766       -3.9508286027       -7.7766900887
 O         0.2844755680       -5.1166199001       -7.5604607443
 C        -0.3936271663       -2.9701674052       -8.6975107821
 C        -0.2522318294       -3.2352696889      -10.2629951873
 O        -0.8257275002       -2.5078898937      -11.0618483720
 C         0.3514845231       -4.5869829916      -10.6271201264
 C         0.3722490340       -4.8800214592      -12.1286875769
 C        -0.9785775271       -5.4990117386      -12.5974894952
 O        -1.3530106494       -6.4348704186      -11.9303120158
 C        -1.8754585166       -5.0360756162      -13.8125648090
 C        -3.3877588846       -5.0204663227      -13.4119791103
 O        -4.2617831325       -5.4995018990      -14.0802011011
 C        -3.7393174352       -4.1461801257      -12.0696718745
 C        -5.2452183067       -4.3710696906      -11.7868950405
 C        -6.0843457192       -3.4888778861      -12.5994394466
 O        -5.5962456617       -2.4525160658      -12.9312750293
 C        -7.5489934856       -4.0440539873      -13.1038205182
 C        -8.4575116454       -3.6475633767      -11.8597511398
 O        -8.2776365924       -4.1882335628      -10.8388553546
 C        -9.6313784377       -2.6084871630      -12.0400173364
 C       -10.5244512896       -2.5392793884      -10.7801312584
 C       -11.4035849135       -1.3145510547      -10.6369683584
 O       -11.0684069647       -0.3474820703      -11.2777768746
 C       -12.8002963552       -1.3469811267       -9.8353871788
 C       -13.0422437465        0.0528479553       -9.3604539651
 O       -13.7424945600        0.8347893933      -10.0642116304
 C       -12.6908072407        0.4332671826       -7.9074375011
 C       -12.2498544619        1.8960729964       -7.7673174073
 C       -10.7186043465        1.8642992009       -8.1052734148
 O       -10.1459081746        0.8073397176       -8.0214102027
 C        -9.9547349109        3.1785310372       -8.3370231474
 C       -10.3389627543        3.7935928776       -9.7991235896
 O       -11.1005048922        3.1980901194      -10.5657109093
 C        -9.6762277644        5.1819728474      -10.1024088529
 C        -8.6985588201        5.1171097017      -11.3459722461
 C        -9.4101892659        5.4000494530      -12.6326433689
 O        -9.7415421019        6.5501290570      -12.8366352557
 C        -9.4020488102        4.2845879783      -13.8253801984
 C       -10.6611807791        3.5289586314      -13.6992832620
 O       -10.6356027619        2.3676725256      -13.2476372658
 C       -11.9126907435        4.3600596211      -14.0161229545
 C       -13.2484588443        4.0275457306      -13.3005284791
 C       -14.1268125060        2.8980202756      -13.7959631398
 O       -13.8684166207        1.7566134995      -13.4401679886
 C       -15.2967887841        3.2297674654      -14.7525341465
 C       -16.5456645591        3.9306881994      -14.0097912639
 O       -17.0456282506        3.3071065354      -13.0191754869
 C       -16.9870119936        5.3060171893      -14.4074597124
 C       -18.0612879217        5.8719064205      -13.4686467043
 C       -19.1677408739        6.8074568042      -14.0220264224
 O       -19.3600287543        7.0263360375      -15.2217733062
 C       -19.7743183418        7.6745461020      -12.7437890972
 C       -18.6088762494        8.4935075434      -11.9046140251
 O       -17.4834695807        8.0819486086      -11.9424113888
 C       -19.0026076505        9.6506066382      -10.9651428174
 C       -20.9300527425        8.5543491909      -13.2774835667
 C       -20.3699729033        6.5941091160      -11.6946226147
 C       -14.6599779232        3.9903078177      -15.8933750315
 C       -15.8881586740        1.9961835162      -15.3999765176
 C        -9.3503169678        5.1220053021      -15.1573005453
 C        -8.0458723094        3.4551038235      -13.6018544716
 C       -10.3862276740        4.2072065796       -7.2554600480
 C        -8.4445574998        2.8568173990       -8.2859737190
 C       -13.8622532353       -1.7539128542      -10.9187257295
 C       -12.7781377400       -2.3626674941       -8.6329738396
 C        -7.9870460636       -3.3276810595      -14.3795034866
 C        -7.5445159161       -5.5202959561      -13.3388703180
 C        -1.4077415183       -3.5927911761      -14.3135789074
 C        -1.5787874624       -6.1142863501      -14.8554691816
 C        -1.8882956608       -3.2561546674       -8.3693575645
 C        -0.1118133462       -1.4991517036       -8.4118894353
 C         5.9322617806       -5.4589478450       -6.2448779459
 C         6.5619594757       -3.1191323926       -5.8952708508
 C        10.3421900262       -4.5407127318      -10.6244708651
 C         9.9543610039       -6.9296404071      -11.7397925682
 C        11.2306455195      -10.1960272234       -4.9178307283
 C         9.1057710802       -9.0604813033       -3.9806230828
 C        12.2523875023       -2.7398841221       -2.5655784453
 C         9.8820594409       -2.4927050965       -3.3886005631
 H        13.8894129224       -2.6849811376       -5.9036366444
 H        13.7613607013       -2.2209256638       -4.2503604063
 H        12.9711697162       -1.2102333612       -5.2411043943
 H        12.3637121451       -5.4517104584       -1.8481928471
 H        12.9522744537       -5.9038499697       -3.3450344526
 H        10.2193641476       -7.0474010643       -2.5861405525
 H        11.8610542753       -7.8804215834       -2.2179296832
 H        11.0407310506       -9.4770076469       -7.4136379372
 H        11.9240024618       -7.9118577327       -7.2983983274
 H         9.2020659833       -8.2922008055       -8.9034946162
 H        10.7624764220       -8.7421047295       -9.5380125517
 H         6.9508993155       -5.0494859595      -11.5907447102
 H         8.0599249103       -3.8463839641      -10.8603797872
 H         5.5939320213       -5.1049147304       -9.4875513578
 H         5.8419993397       -3.4000273406       -9.9368717245
 H         3.1976271254       -4.5794464191       -6.1727594951
 H         3.2819446441       -5.1994599993       -7.7552013430
 H         2.1839932836       -2.6423725339       -8.4842366183
 H         1.9319221043       -2.5617590812       -6.7887269793
 H        -0.1516305048       -5.4260888531      -10.1560432096
 H         1.3911882017       -4.5104054779      -10.2212796259
 H         1.1067183563       -5.7575145954      -12.3115803889
 H         0.7013153654       -4.1166651037      -12.8817779360
 H        -3.4984033094       -3.1187368509      -12.1410222829
 H        -3.1461430604       -4.5128393833      -11.2868972032
 H        -5.4499609960       -4.0291933987      -10.7586006060
 H        -5.3972778517       -5.4853587399      -11.8808612953
 H       -10.2860006440       -2.9696433623      -12.8640457400
 H        -9.1635850173       -1.6601201063      -12.1712779073
 H        -9.8886596250       -2.7048751382       -9.9312637332
 H       -11.2587786142       -3.3167159016      -10.9683038372
 H       -11.9033764280       -0.1438866066       -7.3839011286
 H       -13.6483691918        0.3245427054       -7.3040315255
 H       -12.3871321696        2.1189180563       -6.6613892520
 H       -12.8345633340        2.6409573400       -8.3294881327
 H        -8.9599482848        5.2865534511       -9.2077436354
 H       -10.2517679258        6.0619699215      -10.1901657775
 H        -8.1918100975        4.1152652426      -11.3422313969
 H        -7.8116555549        5.9012560168      -11.2442281820
 H       -12.0567712635        4.2339124339      -15.0729404687
 H       -11.6676809949        5.4310164486      -13.8010148179
 H       -13.8762100700        4.8861513035      -13.1988138888
 H       -13.0848253505        3.8142314821      -12.2262286542
 H       -17.4946992302        5.1029770291      -15.3649194098
 H       -16.0615890990        5.8758938247      -14.6172382578
 H       -17.5065439199        6.4598725566      -12.6988153261
 H       -18.6213462289        5.0183126852      -13.0105282112
 H       -19.3981925839        9.2681086428      -10.0422453739
 H       -19.7203774456       10.3902619980      -11.3640763270
 H       -18.1443203423       10.1239761660      -10.6113208300
 H       -20.6156712563        9.5796409541      -13.1079541377
 H       -21.8687746415        8.3797809581      -12.7063398638
 H       -21.0866198705        8.2188624841      -14.2807348430
 H       -19.6732646953        5.7421663427      -11.6144467663
 H       -21.3582065915        6.1528825604      -11.9809068255
 H       -20.5043256057        7.1293746902      -10.6816381012
 H       -15.3551557650        3.9777064318      -16.7322914907
 H       -13.7781226636        3.4245805957      -16.2142625717
 H       -14.4255706606        5.0575092574      -15.7584875311
 H       -14.9996283143        1.6529816273      -15.9446301426
 H       -16.7007049094        2.3282850785      -16.0979973047
 H       -16.3023235860        1.2720929290      -14.6752199848
 H        -8.6821970672        5.9188318637      -15.0834130426
 H       -10.2914788403        5.5904206330      -15.5232460836
 H        -9.1070743153        4.3949805272      -15.9451681930
 H        -8.1736467310        2.7416779691      -12.7378181014
 H        -7.1507395927        4.0612090293      -13.4814588506
 H        -7.8502034792        2.7799458913      -14.4484586457
 H       -10.2258803491        3.8044793462       -6.3085999969
 H       -11.3896024760        4.6850280708       -7.1048079153
 H        -9.7501621049        5.0281874024       -7.3440389928
 H        -8.2904588566        2.1553949902       -7.4649119151
 H        -7.7932611874        3.7086947520       -8.0839074441
 H        -8.1827733533        2.4073243709       -9.2396420040
 H       -13.7452748211       -1.2430516863      -11.8810816828
 H       -14.8846311317       -1.4717428734      -10.5837313387
 H       -13.9222891892       -2.7960948129      -11.1371723278
 H       -13.0486804132       -3.3289707996       -8.9985956917
 H       -13.4837051709       -2.0576594815       -7.8388715773
 H       -11.7747798158       -2.3573095542       -8.1961259814
 H        -9.0086966517       -3.3758555484      -14.4245236504
 H        -7.4863391200       -3.6910022891      -15.2851611264
 H        -7.6041680150       -2.2916663649      -14.3178142516
 H        -8.4466269240       -5.8325101628      -13.7926932070
 H        -7.3290493874       -6.1121890830      -12.4226406324
 H        -6.8101702691       -5.8939389240      -14.0854405922
 H        -1.7917381063       -3.5016161025      -15.3583981398
 H        -0.3345317236       -3.4023896692      -14.1584967714
 H        -1.9434851707       -2.8364278975      -13.8328759026
 H        -0.5494095432       -6.4091214149      -14.9423061163
 H        -1.8567328138       -5.7812626894      -15.9654430584
 H        -1.9853042415       -7.0348465729      -14.5792828376
 H        -2.4823752994       -2.5249690585       -8.8931004019
 H        -2.1382909062       -3.2346020580       -7.3404710414
 H        -2.1428132917       -4.2438635639       -8.7055632100
 H         0.8485240621       -1.2707344491       -8.7943062436
 H        -0.1885986221       -1.3493769876       -7.3444516258
 H        -0.8832229707       -1.0100944958       -8.8974884369
 H         6.3917378042       -6.2254012021       -6.9630678446
 H         4.9194244871       -5.7960348923       -6.0259712233
 H         6.5954257570       -5.3873514325       -5.4268842928
 H         6.2279877766       -2.0684898155       -6.0699950486
 H         7.5815392550       -3.0583366009       -6.0603775716
 H         6.3010612365       -3.5113531939       -4.9143435592
 H        10.0923578432       -4.1705792815      -11.6341375392
 H        11.4898017819       -4.5557868648      -10.6118826056
 H         9.8937830558       -3.8102882490       -9.9732995131
 H         9.3430778647       -7.8282998034      -11.5610206677
 H        11.0244450682       -7.0877816496      -11.7186421918
 H         9.6078071802       -6.4189674689      -12.6070241885
 H        11.1607290888      -10.7982574806       -3.9935427054
 H        12.2878188135      -10.0152543006       -5.0141634036
 H        10.9088870062      -10.7550380995       -5.7932482430
 H         8.7422461407      -10.0583109135       -4.2874731063
 H         8.2611322991       -8.4000675912       -4.3191493960
 H         9.1710006637       -9.1210319722       -2.8852547274
 H        12.4725739552       -1.6764112880       -2.7579112954
 H        13.2557637448       -3.2261848492       -2.3983348109
 H        11.8487901146       -2.6201508541       -1.5867143022
 H         9.6439089285       -2.4597390181       -2.3365398168
 H         9.0197764553       -2.9238583621       -3.8618006199
 H         9.9974418081       -1.4393307588       -3.6969281677
 Na        9.8461415732       -5.1701217366       -6.3842101602
 Na      -12.2333894935        1.3321501631      -11.9243179458
