232

 C        13.0653990622       -1.9877892382       -5.1734846698
 C        11.9344888003       -3.0616795493       -5.1899878395
 O        11.6826044204       -3.5874902995       -6.2592305865
 C        11.1560667091       -3.3477843132       -3.8139493497
 C        10.6568609416       -4.7978668757       -3.7386872709
 O         9.7641360408       -5.2024135897       -4.5029751707
 C        11.1204404018       -5.6662368024       -2.6228004021
 C        10.6159763252       -7.1331296115       -2.9216485902
 C        11.3011497335       -7.6865863863       -4.1590256766
 O        12.3978363035       -7.3165548037       -4.5267775487
 C        10.6148052959       -8.9308550625       -5.0186249173
 C        10.4706983938       -8.1712646817       -6.4131183187
 O         9.4610689337       -7.4463687822       -6.5681610971
 C        11.6094220168       -8.3679954523       -7.5118645798
 C        11.1681265536       -8.1152699670       -8.9398011174
 C        10.8897760048       -6.6243692633       -9.1528016234
 O        11.1243260376       -5.8131269626       -8.2586314440
 C        10.2567721686       -6.0369283368      -10.4896072133
 C         8.7911065671       -5.8892607324      -10.0675548014
 O         8.1060407816       -6.8767255856       -9.7962350284
 C         7.9134548917       -4.4940007754      -10.1145583488
 C         6.5614935181       -4.6267476882       -9.3568833350
 C         6.7004936945       -4.1473862187       -7.9460778623
 O         7.8167882548       -3.9576234298       -7.4619386319
 C         5.4291337569       -4.0730940947       -6.8194362373
 C         4.2100788702       -3.2012953655       -7.4227405414
 O         4.3941486228       -2.0959781998       -7.7437734454
 C         2.9150826842       -3.9689145226       -7.6069815037
 C         1.7783590091       -2.9383368250       -7.8518927260
 C         0.3685401344       -3.7305164125       -7.8577060102
 O         0.1875189806       -4.8065916326       -7.3539117434
 C        -0.6469914984       -3.0256764168       -8.7028781963
 C        -0.5044890474       -3.3763588804      -10.2784774943
 O        -1.0264111364       -2.7080361024      -11.1414528720
 C         0.2804002092       -4.6553420668      -10.5636101893
 C         0.3543816102       -4.9881309392      -12.0528357122
 C        -0.9456668436       -5.6661776594      -12.5368246606
 O        -1.4076625894       -6.6272684043      -11.9375983534
 C        -1.7031862602       -5.1676913194      -13.8446636052
 C        -3.2221573583       -5.3080761188      -13.3685301530
 O        -3.9398116427       -6.0982261504      -13.9924846947
 C        -3.7180953273       -4.4789779557      -12.2154043574
 C        -5.2970526276       -4.4900593394      -11.9517346456
 C        -6.0570789141       -3.5794646729      -12.8982530948
 O        -5.6956559845       -2.6209812244      -13.5766240178
 C        -7.6036650240       -4.0120594733      -13.0666044964
 C        -8.2726709341       -3.7275087815      -11.7349564297
 O        -7.9488718470       -4.2762164075      -10.6458281656
 C        -9.3827469094       -2.6090866973      -11.6562055353
 C       -10.2733124407       -2.5977381997      -10.3929261174
 C       -11.2896779907       -1.4132835408      -10.5284952709
 O       -11.0866905159       -0.6045790780      -11.3995667597
 C       -12.7002216057       -1.5576410630       -9.7931452590
 C       -12.9669148590       -0.0881761551       -9.2775581726
 O       -13.3671894647        0.7731935780      -10.0630967325
 C       -12.3285171946        0.3435805011       -8.0034300853
 C       -11.7197996677        1.7444535348       -8.1244226446
 C       -10.2543102317        1.6943734353       -8.4696095341
 O        -9.8496263926        0.5623573485       -8.7260875824
 C        -9.3827584028        2.9636964011       -8.5936231220
 C       -10.0059622079        3.8043057029       -9.7430464347
 O       -10.9889021650        3.5410621577      -10.3785131683
 C        -9.1632988512        5.0541205768      -10.0501262001
 C        -8.4868221721        4.9396260995      -11.4725957483
 C        -9.3834718614        5.4318204420      -12.6126993297
 O       -10.0236448790        6.4448498012      -12.5880055177
 C        -9.6011755361        4.3892959776      -13.7910177057
 C       -10.9679180749        3.7221627655      -13.5381266496
 O       -10.9694446893        2.6062015714      -13.1115275649
 C       -12.1680743689        4.5905584632      -13.8434849723
 C       -13.5985002354        4.2753001516      -13.1342187752
 C       -14.2494814583        2.9652823349      -13.7408785110
 O       -13.9104346336        1.8770864307      -13.4271855563
 C       -15.4657192204        3.2850012927      -14.6694096217
 C       -16.5948937321        3.5917547042      -13.6193944366
 O       -16.8484193349        2.9399335365      -12.6842238347
 C       -17.3144822959        5.0136677839      -13.9166838938
 C       -18.3409981370        5.5667293216      -12.9147906201
 C       -19.2000924793        6.7824564861      -13.5020299482
 O       -19.0614809278        6.9127346660      -14.6805190704
 C       -19.9004058364        7.8999033207      -12.5908241980
 C       -18.8490616725        8.9930606264      -12.0096154515
 O       -17.6587685582        8.7571639105      -12.1394014661
 C       -19.4272470879       10.0696763995      -11.0687749055
 C       -21.1016845355        8.5565612723      -13.4843704819
 C       -20.5671651646        7.1290645938      -11.4425070671
 C       -15.1802349550        4.4227800059      -15.6576525988
 C       -15.9639159987        1.9771813196      -15.4515334334
 C        -9.6791571726        5.1310582969      -15.1176187439
 C        -8.4969067324        3.3090114317      -13.8888182738
 C        -9.5494823298        3.8620284863       -7.2933956216
 C        -7.8686288261        2.6196050474       -8.6465546585
 C       -13.8054202509       -1.9163589501      -10.8131597098
 C       -12.7243622896       -2.5036722488       -8.5183825017
 C        -8.1946268923       -3.1408398572      -14.1725779837
 C        -7.6568260231       -5.5220005118      -13.4169366140
 C        -1.4595327324       -3.7652443002      -14.2775001201
 C        -1.5999304593       -6.1106444071      -15.0808906488
 C        -2.1245885132       -3.4524886345       -8.3134456403
 C        -0.5148133220       -1.4521114806       -8.5350411603
 C         5.0094133778       -5.3851354251       -6.2184209727
 C         6.0124656789       -3.0165426901       -5.8043092303
 C        10.9853197885       -4.7731715880      -11.0166367074
 C        10.4924219289       -7.0583543158      -11.6479443873
 C        11.7035192344      -10.1132036816       -4.9364900608
 C         9.2492318120       -9.4814772549       -4.5196637820
 C        12.1690718676       -3.1958892668       -2.7494500741
 C         9.9711029066       -2.3997020863       -3.6071460917
 H        13.6709715803       -2.1542467529       -4.3293767743
 H        12.5557541297       -1.0051501976       -5.0238007191
 H        13.5940869433       -1.9157062702       -6.0859832059
 H        10.7683898040       -5.3101736106       -1.6944064409
 H        12.2034908038       -5.6502649042       -2.4102307269
 H         9.5731397079       -7.1254343510       -3.1140923172
 H        10.9387077144       -7.7976201968       -2.1260917399
 H        11.8723251176       -9.3982322213       -7.3784945511
 H        12.5006849329       -7.6625995657       -7.4065274142
 H        10.1576034224       -8.5307539683       -9.1797136507
 H        11.9534935787       -8.3433059673       -9.6498232199
 H         7.7697116843       -4.3875458866      -11.2239688298
 H         8.5056072831       -3.6087144067       -9.8200152033
 H         6.1566500695       -5.6808380613       -9.3558283756
 H         5.7944139794       -4.0938848274       -9.9381263511
 H         2.7340958980       -4.6227692671       -6.7416412358
 H         3.2644844904       -4.6327343035       -8.4398634892
 H         1.7318110711       -2.4507561218       -8.7792497914
 H         1.7578543155       -2.2790039063       -7.0157278834
 H        -0.2799620441       -5.3600908697       -9.9560894096
 H         1.3322443047       -4.5085171896      -10.2518496962
 H         1.1334987549       -5.7576634370      -12.2904181715
 H         0.6656802921       -4.0463639655      -12.6396539643
 H        -3.3601960810       -3.4810578211      -12.4037439228
 H        -3.2107630701       -4.8559158953      -11.3905666291
 H        -5.4007700528       -4.2174042689      -10.8454550817
 H        -5.6123015930       -5.4724709215      -12.1713572162
 H       -10.0471796322       -2.8192625059      -12.4648087409
 H        -8.8058970186       -1.5866435876      -11.7688912107
 H        -9.6329265298       -2.6035658634       -9.5361572806
 H       -10.7966487357       -3.5525640668      -10.4034904918
 H       -11.5164279951       -0.3689927161       -7.9277217180
 H       -13.0703617204        0.3539043570       -7.1397579776
 H       -11.8924540325        2.4621430665       -7.2950172926
 H       -12.2353802639        2.3378021295       -8.9213562260
 H        -8.3368913660        5.0984668854       -9.4806824689
 H        -9.7447673559        6.0124591124      -10.1004705281
 H        -8.1430917563        3.8405736519      -11.6446752504
 H        -7.5920573344        5.6121405612      -11.4064627231
 H       -12.2645007264        4.6816610695      -14.9364450171
 H       -11.8864402661        5.5842960489      -13.4902573630
 H       -14.2244973962        5.1522267794      -13.2158140970
 H       -13.4923432855        4.1170826287      -12.0488107796
 H       -17.7939685014        4.9754084555      -14.8822171034
 H       -16.5618672585        5.7754565445      -14.1543695074
 H       -17.7713398202        5.7031689616      -11.9707862154
 H       -19.1140748336        4.7483849134      -12.8621350920
 H       -19.3759759571        9.7162588499      -10.0468698178
 H       -20.4101238335       10.2795398241      -11.3230060438
 H       -18.8964650309       11.0429501385      -11.0373436850
 H       -22.0152269183        8.1102033671      -13.1389678017
 H       -20.9038148063        8.2409666070      -14.4822986372
 H       -21.0101699128        9.6799345892      -13.5948457713
 H       -19.7737529913        6.6548608243      -10.7924801134
 H       -21.2440345185        6.4599812069      -12.0517800139
 H       -21.2071904261        7.6826272922      -10.7771664591
 H       -16.0785034058        4.7253496605      -16.1587335508
 H       -14.4547122328        4.2265608721      -16.4561126547
 H       -14.7875492253        5.3016654400      -15.1620438688
 H       -15.2890698646        1.9301797930      -16.3215170278
 H       -16.9876360548        2.1101296106      -15.8805173636
 H       -15.9765864117        1.0415277910      -14.8263721991
 H        -8.7543838033        5.1479451760      -15.7428127176
 H       -10.0255244127        6.1389146434      -14.9746547909
 H       -10.2700334428        4.5509287566      -15.7978728700
 H        -8.6778168349        2.4935627747      -13.1951536261
 H        -7.4019665443        3.6153446270      -13.7511893470
 H        -8.5988933156        2.8256045299      -14.8707102914
 H        -9.3729795467        3.3776309362       -6.3936715515
 H       -10.5464384164        4.2414031668       -7.3267767558
 H        -8.8490716482        4.6656999598       -7.1269154663
 H        -7.6861409374        2.0556878755       -7.7758625165
 H        -7.2806017590        3.4884289254       -8.8396827717
 H        -7.7574695839        1.9793150981       -9.5426718827
 H       -13.9006377617       -1.1421516412      -11.5394551207
 H       -14.7706353443       -1.9348025276      -10.3363148097
 H       -13.7466889366       -2.9281524251      -11.2372636007
 H       -12.7876684628       -3.5240086821       -8.8157469851
 H       -13.5230003112       -2.1894223297       -7.8552113383
 H       -11.7557774493       -2.5306408412       -8.1210929772
 H        -9.3143508647       -3.2239368867      -14.2337800179
 H        -7.8772746291       -3.5195492659      -15.1132612127
 H        -7.9450745868       -2.1053194562      -14.1043663257
 H        -8.7090449405       -5.8768005543      -13.5846614141
 H        -7.2951772782       -6.1680281930      -12.6307272903
 H        -7.0610103106       -5.8224767357      -14.2216938689
 H        -1.9426610894       -3.6298322055      -15.1965736407
 H        -0.3792964298       -3.6450365993      -14.3321154266
 H        -1.9202136902       -3.0312299866      -13.6123006634
 H        -0.6126006681       -5.8464274204      -15.5397883626
 H        -2.3834946981       -6.0875739262      -15.7379023671
 H        -1.2821186801       -7.1430409986      -14.8023790777
 H        -2.6891884346       -3.6267857581       -9.1687100140
 H        -2.5305703509       -2.6517419586       -7.7378307832
 H        -2.2095645283       -4.3472831272       -7.6900788470
 H         0.5010929455       -1.2303886794       -8.3600062932
 H        -1.0226066224       -1.3962573549       -7.6789115463
 H        -0.7435407127       -0.8492494202       -9.3671783769
 H         4.2569337079       -5.7169117827       -6.8361965053
 H         4.8041679701       -5.2375539124       -5.1694139884
 H         5.8260664896       -6.1593523136       -6.2941775653
 H         6.1650139471       -2.0477243807       -6.2243412051
 H         6.9411904055       -3.4318537028       -5.3417679411
 H         5.3022480372       -2.9316391598       -5.0187036999
 H        10.4887907051       -4.6148956362      -12.0148939471
 H        12.0571770620       -4.8033551283      -11.1304378435
 H        10.8211302616       -3.9153586038      -10.2992432272
 H         9.6665962201       -7.7416773851      -11.5608774057
 H        11.4678484105       -7.4352692371      -11.5266575250
 H        10.4444749662       -6.4679513421      -12.5692997769
 H        11.4897640797      -10.6435570434       -4.0457130155
 H        12.7527444472       -9.7363747650       -4.9610961299
 H        11.5949517991      -10.8301388507       -5.7959599753
 H         8.5718225423       -9.8233430148       -5.3082474159
 H         8.6058009975       -8.6872679009       -4.1965357965
 H         9.3308181068      -10.2005681472       -3.6768678997
 H        12.5666109521       -2.1722594462       -2.6840592724
 H        13.0033993658       -3.8935617359       -2.8546785715
 H        11.7407612317       -3.4973392213       -1.7601064794
 H         9.5283988329       -2.7357234508       -2.6298125535
 H         9.1760678433       -2.5452642295       -4.3416587319
 H        10.1668364660       -1.3812338698       -3.4329510057
 Na        9.6675981259       -4.9114396713       -6.7081245687
 Na      -12.3114419863        1.6197030953      -11.7596498654
