232

 C        12.9728135128       -2.0391321316       -5.3592801065
 C        11.9290239025       -3.1170302568       -5.1826905421
 O        11.4553714056       -3.6323349447       -6.1624134826
 C        11.2344604246       -3.3720102660       -3.7424887941
 C        10.5263328032       -4.8004211909       -3.7436259810
 O         9.6829225758       -5.1104754120       -4.5504479821
 C        10.8013314466       -5.8133512261       -2.6132065699
 C        10.2608835296       -7.1973951850       -2.9164736734
 C        11.1756536123       -7.6927314622       -4.1390753050
 O        12.2850145429       -7.2345969446       -4.1665765293
 C        10.7373617318       -8.8693932070       -5.1935337817
 C        10.6485400233       -8.0351511335       -6.5472012272
 O         9.6474489311       -7.3870836612       -6.7541739240
 C        11.7970217637       -8.2927994512       -7.5750206216
 C        11.2377484625       -8.0684604869       -9.0272908674
 C        10.8825732565       -6.5480133071       -9.2654319323
 O        11.1326827918       -5.6971275603       -8.4430264724
 C        10.2820704314       -6.0903287950      -10.6274269866
 C         8.8472979558       -6.0088059269      -10.0250570882
 O         8.3421832032       -7.0701101775       -9.7592777723
 C         8.2088865459       -4.6888253186       -9.7625272375
 C         6.8052689552       -4.7759888754       -9.0693491217
 C         6.8161068075       -4.1001862464       -7.6678050728
 O         7.8602989369       -3.8119281251       -7.0763588086
 C         5.4870476908       -3.9522943396       -6.8789609957
 C         4.3758119977       -3.1171100427       -7.5400293149
 O         4.4966857648       -1.9347982777       -7.8900054807
 C         2.9226973133       -3.7536239993       -7.6650537726
 C         1.8270315457       -2.8650466370       -8.0975028041
 C         0.3627470745       -3.5431860707       -7.9536689944
 O         0.2279420541       -4.5523414666       -7.3366790043
 C        -0.8715224391       -3.0357589503       -8.8104006502
 C        -0.6259259648       -3.4486582514      -10.3028104232
 O        -1.1005312927       -2.7707018710      -11.1580048707
 C         0.2173763962       -4.6848202299      -10.5614980840
 C         0.3365218742       -4.9583290732      -12.0429102735
 C        -0.9873679225       -5.6554239704      -12.5624681871
 O        -1.2969454366       -6.6810338652      -12.0038318695
 C        -1.7827450021       -5.1710584578      -13.7758241824
 C        -3.3250376100       -5.3516348241      -13.4207727968
 O        -4.1177309411       -6.1011412698      -13.8792696139
 C        -3.7484234611       -4.4092850847      -12.2885307274
 C        -5.2564753056       -4.5865262839      -11.9471517135
 C        -6.0833782627       -3.7677219198      -12.9267722691
 O        -5.5694211020       -2.8671768536      -13.5293714843
 C        -7.6160375820       -4.0682651272      -13.1627759712
 C        -8.3194749475       -3.6838808910      -11.6826751951
 O        -7.9384896458       -4.2857269163      -10.7480948051
 C        -9.3164564960       -2.5545285381      -11.6953711401
 C       -10.1356060961       -2.3839729349      -10.3913128012
 C       -11.2890195626       -1.4766454457      -10.6035947565
 O       -11.1843687351       -0.5471477538      -11.4051600229
 C       -12.6438091905       -1.5682105983       -9.7033371581
 C       -12.9512845357       -0.1201646228       -9.1774812160
 O       -13.5470472832        0.6881978158       -9.8630694130
 C       -12.3167868179        0.3233475242       -7.8261389381
 C       -11.3570029609        1.5626166498       -7.8395754388
 C       -10.0377875912        1.5247648365       -8.5497710605
 O        -9.6856326762        0.5317142635       -9.1188968784
 C        -9.2655493098        2.8760707110       -8.5840786770
 C        -9.8466350117        3.9161293187       -9.7243386655
 O       -10.9028908457        3.6529064389      -10.2797257814
 C        -9.0071369510        5.0906453959      -10.1227891031
 C        -8.3943854880        5.0074167495      -11.5615924495
 C        -9.4186988101        5.2713804110      -12.6911591640
 O       -10.0698019580        6.2744094385      -12.4740520255
 C        -9.6505351392        4.4281442865      -13.9985867273
 C       -11.0652798643        3.7916936945      -13.7013129809
 O       -11.2153025741        2.6270449055      -13.3982131991
 C       -12.3090707121        4.7187657996      -13.8050776151
 C       -13.5025068389        4.2992171507      -12.9834636901
 C       -14.3190751856        3.1638073773      -13.6794569101
 O       -14.0308285442        1.9705837895      -13.4854193552
 C       -15.5440740659        3.4610843397      -14.5830576922
 C       -16.6251714109        3.7052628482      -13.3143529329
 O       -16.8915892006        2.8771549903      -12.4259472228
 C       -17.3684984950        4.9965830102      -13.6111579987
 C       -18.4329895427        5.6209187302      -12.6366092408
 C       -19.1006196248        6.7502738283      -13.3999799980
 O       -18.9421357393        6.8679508553      -14.6073757946
 C       -19.9284298451        7.8392276854      -12.5515001986
 C       -18.9170364356        9.0061762569      -12.0868125125
 O       -17.7194516460        8.8582428002      -12.3209370711
 C       -19.5694219474        9.9957991661      -11.1550476045
 C       -20.8527144152        8.4023410650      -13.5346845816
 C       -20.6298390119        7.1756124807      -11.3807546196
 C       -15.3433485567        4.5622365622      -15.6180425690
 C       -16.0270883526        2.1771021694      -15.2697047623
 C        -9.7483157216        5.4313175800      -15.1392231487
 C        -8.6069181786        3.3549361060      -14.2207249441
 C        -9.4584647946        3.5947578677       -7.2243311016
 C        -7.7230205894        2.4637397757       -8.9607596434
 C       -13.7865738490       -1.9461244083      -10.7015055969
 C       -12.5022675066       -2.6134323822       -8.5219792252
 C        -8.1750798173       -3.2132893464      -14.3115516600
 C        -7.9633342534       -5.5253330272      -13.4044020831
 C        -1.4144673419       -3.7473788902      -14.2500890361
 C        -1.2832907080       -6.2584690914      -14.8314806148
 C        -2.2119561126       -3.7373626538       -8.3690477994
 C        -1.0986872600       -1.4906232275       -8.7284259264
 C         5.0435648429       -5.4540749090       -6.6106957187
 C         5.8178299525       -3.3553675129       -5.4971971659
 C        10.8627037365       -4.6756564525      -10.8540026939
 C        10.3751578808       -7.0355326948      -11.8084143347
 C        11.9054242461       -9.9557890460       -5.1313493274
 C         9.3576902067       -9.4238120839       -4.7449294475
 C        12.1396627836       -2.9803933540       -2.6180426974
 C        10.0542989995       -2.4500009334       -3.7402710666
 H        13.8283170669       -2.0835964889       -4.6372797955
 H        12.4620674515       -1.1410206910       -5.2490448875
 H        13.3406315995       -2.1408270448       -6.3828176390
 H        10.3782267068       -5.5240617637       -1.6068394973
 H        11.8558287914       -5.8759469682       -2.3530018698
 H         9.1359881174       -7.0888753783       -3.1103832070
 H        10.4617078257       -7.8969052868       -2.0702791489
 H        12.0223452035       -9.3721029996       -7.5555962399
 H        12.6368425456       -7.7071881445       -7.3549131177
 H        10.3490762987       -8.6703402958       -9.2065391279
 H        12.1141841175       -8.2804694979       -9.6916160108
 H         8.2901720442       -4.0963935054      -10.6753850003
 H         9.0255610429       -4.2566791788       -9.1559912611
 H         6.5714150878       -5.8566080035       -8.9416710895
 H         6.0499203903       -4.4833231916       -9.8341183411
 H         2.7586898439       -4.0054304328       -6.6138580351
 H         2.9886183669       -4.6471375760       -8.2791511777
 H         1.7982218752       -2.6353699698       -9.1862780823
 H         1.7456716133       -1.9710911737       -7.4495633792
 H        -0.2460625796       -5.6029801370      -10.1751455413
 H         1.1781274004       -4.4784401814      -10.1299843683
 H         1.1306001346       -5.5948087088      -12.2667600686
 H         0.4761727201       -4.0687823664      -12.5814379605
 H        -3.5674419740       -3.3596010421      -12.6451432506
 H        -3.1025119329       -4.6290669995      -11.3422290881
 H        -5.2834027823       -4.0931752662      -11.0306293707
 H        -5.5467894070       -5.6612231798      -11.8256874912
 H       -10.0170837887       -2.7210645829      -12.6035371528
 H        -8.7695816505       -1.6477682950      -11.8819135415
 H        -9.6287500216       -1.9380747237       -9.4763671389
 H       -10.5750572111       -3.3650620413      -10.0867347336
 H       -11.7682115455       -0.4713784427       -7.2825620510
 H       -13.1324541098        0.7232909282       -7.2822942980
 H       -11.1321469868        1.7439713652       -6.7938625494
 H       -11.7883892500        2.5327942282       -8.0472076699
 H        -8.1754757036        5.1965834146       -9.3169944811
 H        -9.5705563007        5.9729828207      -10.2477184610
 H        -7.9050013743        4.1217525384      -11.6950901201
 H        -7.7349997856        5.8067404683      -11.7251671095
 H       -12.5754975484        4.7014566871      -14.8929134968
 H       -12.2090702041        5.7980881557      -13.5353284918
 H       -14.1281193086        5.2264196069      -13.0313077400
 H       -13.2393259411        4.0405497488      -11.9499867211
 H       -17.9136695023        4.6556394768      -14.5256698030
 H       -16.7148238503        5.7060149827      -14.1406379735
 H       -17.9459548914        6.1081374260      -11.8028098166
 H       -19.0481465048        4.7906649487      -12.3313159850
 H       -19.2450367322        9.6824446930      -10.1570976440
 H       -20.6815887042       10.1535200153      -11.1731413160
 H       -19.1704283877       10.9879184420      -11.2642609797
 H       -21.5582933937        7.6296558558      -13.8884666513
 H       -20.2297928794        8.7389999583      -14.3836603556
 H       -21.3822378719        9.2543411057      -13.0718472559
 H       -19.8728767759        6.6214099281      -10.9415524118
 H       -21.5313765099        6.6764908170      -11.5957192527
 H       -20.8292122566        7.9254921801      -10.5533097838
 H       -15.9874676595        4.5335839080      -16.5098030750
 H       -14.3678089210        4.3088194359      -16.0739586566
 H       -15.2270110802        5.6096688945      -15.2830719241
 H       -16.2330184735        2.3172757273      -16.3218157202
 H       -16.9632175231        1.8487375842      -14.8356972778
 H       -15.3205101066        1.3704544682      -15.1262750785
 H        -8.9959172174        6.1403260161      -15.1931089261
 H       -10.7541122708        5.8752091720      -15.0729338718
 H        -9.5580798780        4.9598776633      -16.1012018592
 H        -8.8470390045        2.4951386751      -13.5692200238
 H        -7.6110220594        3.5820430903      -13.9609779127
 H        -8.6078418809        2.9682450900      -15.2280800066
 H        -9.1251007653        2.8790234850       -6.3751542363
 H       -10.4319746040        3.9765806852       -7.0341926402
 H        -8.6672585399        4.4115102129       -6.9944024929
 H        -7.6072953970        1.5268358159       -8.4031586577
 H        -6.9899011077        3.2574597165       -8.7298606327
 H        -7.7349798521        2.1933024399      -10.0389832055
 H       -13.6616409570       -1.3926808817      -11.6147690655
 H       -14.8337103280       -1.6565112451      -10.3442813541
 H       -13.8070716192       -2.9960650404      -10.8823333428
 H       -12.6249210356       -3.6470937287       -8.8440337407
 H       -13.3261582105       -2.3508303146       -7.8408805106
 H       -11.5001803077       -2.5991132007       -8.0550132279
 H        -9.2238578621       -3.4086358391      -14.3920656165
 H        -7.8423187374       -3.6344781146      -15.3121732695
 H        -8.0776358158       -2.0835639543      -14.2346532713
 H        -8.9767268588       -5.5973978651      -13.7976131784
 H        -8.0223394084       -6.2632800503      -12.5412720609
 H        -7.2518261604       -6.0481990768      -14.1243349969
 H        -1.9831785955       -3.5385761074      -15.2444908325
 H        -0.3391906958       -3.7934558983      -14.5470426438
 H        -1.6939159416       -2.9956316862      -13.5040028964
 H        -0.1586856703       -6.1984258775      -14.9188614528
 H        -1.7670463621       -5.9017477180      -15.7575487529
 H        -1.6302290331       -7.2593042314      -14.7341840314
 H        -2.7068275590       -4.3010722753       -9.1925246486
 H        -2.8556436560       -2.9870818392       -7.9311129224
 H        -2.0397776481       -4.4654355287       -7.5905176926
 H        -0.1524142436       -0.9404312712       -8.8765551216
 H        -1.6977663802       -1.2616824188       -7.7948602366
 H        -1.6345825084       -1.3920173396       -9.6633519758
 H         5.2467050556       -6.1698127909       -7.4688200602
 H         4.0612123610       -5.4451056030       -6.1406098689
 H         5.6813198279       -5.7033077310       -5.8151720455
 H         5.9022054126       -2.1999362939       -5.4940707980
 H         6.7250436618       -3.8242262622       -5.1600125006
 H         5.0257426068       -3.5710254133       -4.7209619673
 H        10.5787119547       -4.2367822852      -11.7827322663
 H        11.9711219882       -4.8451795702      -10.8850432255
 H        10.8236916786       -4.0752719419       -9.9961497752
 H        10.0231283770       -7.9862691155      -11.3787406821
 H        11.4350116952       -6.9867579158      -12.1404262864
 H         9.7718871851       -6.5880085484      -12.5759681423
 H        12.0171807093      -10.3971498381       -4.1264525803
 H        12.7998619097       -9.5205021950       -5.4945731766
 H        11.5991781645      -10.7577188029       -5.7646095354
 H         9.1913712058      -10.4190783625       -5.1658858158
 H         8.4512667787       -8.8782659693       -5.0797360532
 H         9.2785300435       -9.5192583585       -3.6723128364
 H        12.3719043325       -1.9208322451       -2.6477177986
 H        13.1140590308       -3.5155882182       -2.7221564615
 H        11.7291778021       -3.3049458313       -1.6776908246
 H         9.5749498594       -2.3268179011       -2.7976026534
 H         9.3226233774       -2.7171602615       -4.4848817036
 H        10.4616498861       -1.4509112905       -4.0247981826
 Na        9.7414357442       -4.8847146396       -6.7846849391
 Na      -12.3176190885        1.5096545344      -11.5588103711
