232

 C        13.1699232252       -2.2545496180       -5.1192651933
 C        11.9117674751       -3.1828049608       -5.0532409663
 O        11.4502642204       -3.6027728345       -6.0801292517
 C        10.9610082978       -3.2420942892       -3.7102174223
 C        10.2567641029       -4.6504344570       -3.8147674003
 O         9.4608412787       -4.9363063276       -4.6972985658
 C        10.5268511766       -5.6803427381       -2.7238856199
 C        10.2226343175       -7.1186223133       -3.1345948964
 C        11.2351340750       -7.6351442908       -4.1573446207
 O        12.3903373442       -7.2671639862       -4.1524810084
 C        10.9226597080       -8.7649568783       -5.1679665021
 C        10.8268413363       -8.0282903263       -6.6179617771
 O         9.8763893489       -7.3491477236       -6.8142977835
 C        11.9438017438       -8.3037758773       -7.6152572214
 C        11.3696678807       -7.9772244256       -9.0537213615
 C        11.2648680842       -6.4092554940       -9.4054832487
 O        11.9229353266       -5.5763244366       -8.8425863071
 C        10.2827997313       -5.9810863593      -10.5905590228
 C         8.8455875245       -5.9230237894      -10.0077629636
 O         8.2049622731       -6.9417893009      -10.0244057485
 C         8.2526282561       -4.5381014211       -9.4174348728
 C         6.9832236289       -4.8023434223       -8.6342327925
 C         6.7092892658       -4.1112752491       -7.2686206055
 O         7.6253046536       -3.5107772695       -6.7957219958
 C         5.2460093659       -4.1425236764       -6.8110382323
 C         4.3971636316       -3.1484874606       -7.6102579463
 O         4.9351927558       -2.2401637285       -8.2818903314
 C         2.8834030751       -3.5427322170       -7.5775596558
 C         1.8095568201       -2.5423946771       -8.2897745460
 C         0.4468502823       -3.2319889468       -8.0107600039
 O         0.3111844302       -3.9595994805       -7.0456989160
 C        -0.8959488420       -3.1126539890       -8.9198115905
 C        -0.6236648168       -3.4253076716      -10.4053186328
 O        -1.1852009274       -2.8106294527      -11.2716566879
 C         0.2711110072       -4.6690683924      -10.6256553636
 C         0.4113722171       -5.0444539659      -12.1062679644
 C        -0.9144341095       -5.7982250475      -12.5256162821
 O        -1.3408282058       -6.6833779683      -11.8151674806
 C        -1.7927894459       -5.4515110698      -13.7625765567
 C        -3.3047001028       -5.4691482517      -13.4169494939
 O        -4.0002294928       -6.0802447366      -14.1462745399
 C        -3.7325956101       -4.6802316566      -12.1285408317
 C        -5.2783030048       -4.7949717353      -12.0780851403
 C        -6.0388898093       -3.7915381769      -13.0339772755
 O        -5.6380790184       -2.9402854643      -13.7701004685
 C        -7.6493876729       -4.0910948555      -13.1323924781
 C        -8.3612341445       -3.5951228901      -11.8308083137
 O        -8.2560255326       -4.0502016110      -10.7590233425
 C        -9.2883897425       -2.3581515763      -11.9218821129
 C       -10.0717537307       -2.2604949901      -10.6434952919
 C       -11.2256842773       -1.2564429068      -10.6269340731
 O       -11.2376052285       -0.4914278129      -11.6060828311
 C       -12.5109010144       -1.5270872396       -9.5940181249
 C       -12.6288666763       -0.1433694300       -8.8387013393
 O       -13.2405826699        0.7435596431       -9.3537904862
 C       -11.9479818700        0.1723427225       -7.5120582704
 C       -11.2643923311        1.5203536343       -7.6425417349
 C       -10.0719159103        1.4185648680       -8.6213168712
 O        -9.9750255250        0.5481099927       -9.4421347142
 C        -9.0515715492        2.6892725980       -8.7020783019
 C        -9.7311325230        3.5910947962       -9.8572264211
 O       -10.8008992665        3.2746130874      -10.4486029893
 C        -8.9565611547        4.8810647243      -10.2454159650
 C        -8.4725945708        4.6235944467      -11.6962774813
 C        -9.4526892517        5.3729466669      -12.6691057028
 O       -10.2252081870        6.2439186232      -12.2752210603
 C        -9.7319186414        4.6855280500      -14.1245060864
 C       -11.2183311567        3.9511269117      -13.8595606507
 O       -11.0787777497        2.7935053927      -13.5020911154
 C       -12.4782134740        4.8574030417      -13.7828686988
 C       -13.5367552783        4.2389807375      -12.8662635360
 C       -14.2662991742        3.0487777137      -13.3961553490
 O       -14.1241976277        1.8416897834      -13.0452177610
 C       -15.5195062628        3.3200420453      -14.2682393422
 C       -16.5878974153        3.7948381238      -13.1756030011
 O       -16.8503248748        3.1681574234      -12.1585905854
 C       -17.3264856158        5.0949591599      -13.5049496307
 C       -18.4274430204        5.6435888058      -12.5947779373
 C       -19.2262845399        6.8535410485      -13.2171014841
 O       -19.1811212368        6.9555476573      -14.4354132804
 C       -20.2257879756        7.9234421933      -12.4828069940
 C       -19.0462194085        8.9971040660      -11.9266116603
 O       -17.9423619341        8.8837602070      -12.4032397185
 C       -19.4339744671       10.2713221097      -11.2149196516
 C       -21.1258253023        8.5414494389      -13.5010170029
 C       -20.8864804711        7.2178269162      -11.2297896145
 C       -15.1672917575        4.3492467250      -15.3503937847
 C       -15.9770642583        1.9953369543      -14.8801817156
 C        -9.6696257411        5.7443503265      -15.2208176270
 C        -8.7925717502        3.5560156600      -14.4838518833
 C        -8.9134343788        3.5017541661       -7.3900170505
 C        -7.6984947004        2.0514969666       -9.3161225036
 C       -13.7654063215       -1.8517756026      -10.5588617013
 C       -12.2167807474       -2.6688214438       -8.5841599135
 C        -8.1275266083       -3.4857762495      -14.4528410266
 C        -7.9377788293       -5.6633697008      -13.3277202652
 C        -1.4253724540       -3.9518747693      -14.2795630650
 C        -1.6141809157       -6.3924927168      -14.9904388231
 C        -1.9373920474       -4.1605979301       -8.3104603666
 C        -1.4887991545       -1.6841151502       -8.7482981306
 C         4.6480942153       -5.6312615965       -6.7659260184
 C         5.1416429324       -3.5945975929       -5.3797436499
 C        10.5765617634       -4.6346033440      -11.2127465307
 C        10.4636779492       -7.0933013999      -11.7275943727
 C        12.0358040970       -9.8272484310       -5.0649694840
 C         9.5583345049       -9.3925358776       -4.9265708398
 C        11.8918987704       -3.1566397332       -2.4623042727
 C         9.9524318275       -2.1609159945       -3.6906024601
 H        14.0101794948       -2.9235460186       -4.8773372536
 H        13.2070595819       -1.4996341227       -4.4169055477
 H        13.3433340006       -2.0256233196       -6.1565455442
 H         9.6997235900       -5.3350543034       -2.0386226515
 H        11.3717535318       -5.6497671066       -2.1469350020
 H         9.2606033247       -7.2521021100       -3.5042876922
 H        10.3215572820       -7.8039373072       -2.2848424875
 H        12.2994439395       -9.3585277778       -7.7197947777
 H        12.7281808282       -7.6320285664       -7.2258836420
 H        10.3653478183       -8.3928318219       -9.1691865658
 H        12.1469707465       -8.3957911535       -9.7338726248
 H         8.2799008391       -3.8732592746      -10.2324358306
 H         9.0270373309       -4.0634727099       -8.7109604523
 H         7.0095858125       -5.9167522976       -8.4371503156
 H         6.1227804842       -4.7546680985       -9.3079473250
 H         2.7017527314       -3.5582597613       -6.4706726546
 H         2.9002153388       -4.4819166575       -8.1491554405
 H         1.9087478206       -2.4079967527       -9.3306215963
 H         1.8330925059       -1.5971715884       -7.7466487676
 H        -0.0201255121       -5.5752465849       -9.9942100819
 H         1.2514995685       -4.2948846141      -10.3342542836
 H         1.2673980432       -5.7938163366      -12.2201422742
 H         0.6594406365       -4.1548216434      -12.6645585663
 H        -3.4637441593       -3.7030736124      -12.2644727719
 H        -3.1310922238       -5.2120451694      -11.3905393013
 H        -5.6746410872       -4.5496810476      -11.0919629620
 H        -5.5488065176       -5.8700919289      -12.2426362793
 H        -9.9845450392       -2.5401242110      -12.7740648895
 H        -8.9326689418       -1.3750613427      -12.1827328568
 H        -9.5624270341       -2.0027308041       -9.6987854250
 H       -10.5487751972       -3.1874412904      -10.3912615801
 H       -11.1423131772       -0.6178284804       -7.2315633751
 H       -12.6858952175        0.3053577020       -6.7328370338
 H       -11.0101166356        1.9578856681       -6.6745933197
 H       -11.9293166916        2.3419184995       -8.0533991472
 H        -8.1063106068        5.1715573823       -9.5908095535
 H        -9.6694738877        5.6509068503      -10.2203775414
 H        -8.4238921422        3.5567416899      -11.9181902851
 H        -7.4134346538        5.0306159310      -11.8950091538
 H       -12.8522494947        5.0476685473      -14.8116398449
 H       -12.1435880008        5.8237673631      -13.4632982395
 H       -14.3779719370        4.9452959568      -12.6982052559
 H       -13.1078090742        3.9424890455      -11.9734470673
 H       -17.6079851068        4.8571000476      -14.5240071501
 H       -16.5947396152        5.8815621941      -13.7174651696
 H       -18.0399075594        5.8093420108      -11.5525807598
 H       -19.2282910868        4.8433640451      -12.4794111406
 H       -19.3769763797       10.2458208161      -10.1477932656
 H       -20.5245553412       10.3947460730      -11.3767486529
 H       -19.0523086607       11.1609499422      -11.6185343209
 H       -20.8704446494        8.1638294479      -14.5150400710
 H       -20.9777787105        9.6360353416      -13.6353379686
 H       -22.0480543588        8.1884430212      -13.2179730325
 H       -20.1590782478        7.2763996200      -10.3813982651
 H       -21.1260149524        6.1486432928      -11.4654951585
 H       -21.8436098983        7.7515972806      -10.9499912154
 H       -15.9819356396        4.4981615691      -16.0511786807
 H       -14.3893973151        3.9894926395      -16.0024070303
 H       -14.8882532373        5.3337997597      -15.0250645615
 H       -17.0447258820        1.7792140174      -14.5517763126
 H       -15.4859877977        1.1768862500      -14.3533729989
 H       -15.9207570117        1.8372392235      -15.9593157287
 H        -8.6073388889        5.9024650320      -15.4453639007
 H       -10.1841044967        6.6291931862      -14.8276269373
 H       -10.1004840880        5.5437865208      -16.2212575869
 H        -8.7186307987        2.7614261506      -13.7037591872
 H        -7.7672863493        3.8153399987      -14.5949819797
 H        -9.0671562452        3.0685670723      -15.4677168473
 H        -8.3579307801        2.8735052796       -6.6667438961
 H        -9.8452974403        3.7772528796       -6.9215332796
 H        -8.4428307347        4.4680579242       -7.5732404032
 H        -7.2896474639        1.3224549407       -8.5931625322
 H        -7.0219631947        2.8748667576       -9.4777505132
 H        -7.9973515637        1.5444520105      -10.1657200663
 H       -14.1767562468       -0.9261496413      -11.0117918094
 H       -14.5398990608       -2.2392630053       -9.8939861455
 H       -13.5677126344       -2.5562478136      -11.3282496884
 H       -12.1603633323       -3.5975408302       -9.1997884213
 H       -13.0081097576       -2.8174526610       -7.9107697024
 H       -11.2717941103       -2.4684753945       -8.0513115575
 H        -9.1542836734       -3.6450608147      -14.6641227183
 H        -7.6111944276       -3.9024516670      -15.3148993830
 H        -8.0559501616       -2.4208847065      -14.4575821935
 H        -8.9602164285       -5.8705111941      -13.3619707864
 H        -7.6611184563       -6.3441658242      -12.5485544813
 H        -7.5074781906       -6.0232453622      -14.2768031620
 H        -2.1854498475       -3.6958602677      -15.0280395552
 H        -0.5997827066       -3.9184894288      -14.8997325685
 H        -1.3580462327       -3.3433186402      -13.4220143600
 H        -0.5917877407       -6.4432841524      -15.2156738624
 H        -2.2046137591       -6.1188182254      -15.9248956561
 H        -2.0865583556       -7.2942437633      -14.7607196745
 H        -2.6931741052       -4.3206014847       -9.1240652437
 H        -2.4511219546       -3.8215302705       -7.4060206811
 H        -1.5337952184       -5.0947442420       -8.1161428010
 H        -1.1185485528       -1.0183118547       -9.4523236876
 H        -1.1431614193       -1.4322576699       -7.7335444652
 H        -2.5198853003       -1.8013322325       -8.7463356430
 H         3.8171677214       -5.7004431244       -7.5084130416
 H         4.1698959021       -5.7985064962       -5.7968686827
 H         5.3717001923       -6.3537079234       -7.0246232538
 H         5.6542854653       -2.6478902700       -5.2925015913
 H         5.5004881403       -4.2596910467       -4.6305022719
 H         4.1040289734       -3.3492205074       -5.1319624293
 H         9.6546597691       -4.2893414090      -11.6674448488
 H        11.2780569766       -4.7905739956      -12.0825157011
 H        11.0060285490       -3.9383011408      -10.4562918031
 H        10.0987486364       -7.9794074550      -11.3078001601
 H        11.5471195353       -7.1419515517      -11.9105950879
 H         9.9687266044       -6.6813294581      -12.5576376433
 H        11.7625330801      -10.5803961319       -4.2444100876
 H        12.9249140277       -9.2509207481       -4.7845753979
 H        12.1204172875      -10.4053412439       -5.9582672388
 H         9.3204225904      -10.1918731230       -5.6271997078
 H         8.7331836477       -8.6687109594       -4.7361493475
 H         9.5409187856       -9.9093872676       -3.9814579936
 H        12.4817357461       -2.2096095741       -2.4898609737
 H        12.6294965215       -3.9572426325       -2.6347918482
 H        11.3204804203       -3.2171693925       -1.5002196190
 H         9.4168922343       -2.2530878681       -2.7808511523
 H         9.2613638596       -2.3065896334       -4.5218386960
 H        10.3636861191       -1.1183840252       -3.8451916971
 Na        9.7980439909       -5.1078548706       -6.9313833209
 Na      -12.2951155675        1.6869548303      -11.6295550317
