232

 C        13.2268179382       -2.5479736883       -4.7508892932
 C        11.8455362474       -3.1708614108       -5.0454814606
 O        11.6013191615       -3.5463095952       -6.1764177378
 C        10.8394164984       -3.2733712537       -3.7439588958
 C        10.1416314935       -4.5755494211       -3.8105058676
 O         9.2886866782       -4.7454484380       -4.6559681973
 C        10.4975511018       -5.6785687227       -2.8283428924
 C        10.2190187282       -7.0834561310       -3.3164707622
 C        11.3038270544       -7.6611881475       -4.2095159611
 O        12.3518205876       -7.0601690728       -4.1192392021
 C        11.0113635819       -8.7806176694       -5.2300654793
 C        10.9230451707       -8.0246775161       -6.5746384755
 O         9.8975806878       -7.3042744551       -6.7656945845
 C        12.0558368116       -8.0587957293       -7.6705890190
 C        11.4539356841       -7.7564528294       -9.0634476439
 C        11.3815464613       -6.2861455034       -9.4695356188
 O        12.1595406431       -5.4604015354       -9.0457008751
 C        10.2776725681       -5.8855715375      -10.5890129484
 C         8.8110176910       -5.8806100350       -9.9518718581
 O         8.1303340588       -6.8659774765      -10.1511140982
 C         8.2353802756       -4.5714986355       -9.2755755465
 C         6.9288831080       -5.0561309944       -8.5348271842
 C         6.6263825215       -4.3256279877       -7.2434289742
 O         7.5716335234       -3.8925089915       -6.5483751995
 C         5.1235479971       -4.2488185474       -6.8042928147
 C         4.3325845438       -3.2537353771       -7.8628883455
 O         4.9420702062       -2.4994135485       -8.5708221155
 C         2.7535168339       -3.3626126493       -7.7600398441
 C         1.7401151975       -2.4653226064       -8.3140524791
 C         0.3598985298       -3.0623863332       -7.8365757994
 O         0.3499340007       -3.5684126853       -6.7246653362
 C        -0.7744948938       -3.1734815122       -8.8143805568
 C        -0.4994396323       -3.5165410892      -10.3674205968
 O        -1.0878170047       -2.8405984078      -11.2285486565
 C         0.4977627220       -4.6609314549      -10.7870248146
 C         0.3311497750       -5.1957334702      -12.2526233705
 C        -1.0361921419       -5.8768031201      -12.5514640966
 O        -1.4233200189       -6.7446159635      -11.7879392165
 C        -1.8206735647       -5.4673518928      -13.8490470519
 C        -3.4022405127       -5.4810144057      -13.5420471719
 O        -4.1870102864       -6.0752107398      -14.2528068814
 C        -3.9027104231       -4.8376110424      -12.2059567230
 C        -5.3552747435       -4.8189116055      -11.9762671609
 C        -6.0513196924       -3.9715564243      -13.0811827830
 O        -5.5034263110       -3.0510138968      -13.6406390311
 C        -7.6703875485       -4.1845352920      -13.3238274072
 C        -8.3430931861       -3.6036176107      -12.0238311931
 O        -8.0665558673       -4.1149358225      -10.8913201228
 C        -9.2431532102       -2.3443750594      -12.1174271389
 C       -10.0862860117       -2.2572208995      -10.8299294277
 C       -11.3346719494       -1.2783584047      -10.8450006877
 O       -11.4816340233       -0.4106850443      -11.6606072578
 C       -12.3297425766       -1.4359287621       -9.6471131325
 C       -12.3145544365       -0.0329145596       -8.9231253694
 O       -12.8529875052        0.9835846981       -9.4129214744
 C       -11.8194335060        0.0356140912       -7.4998138741
 C       -11.1103764917        1.4103869551       -7.3635324380
 C       -10.0844691905        1.3800815462       -8.5182278308
 O       -10.1569479476        0.3842308236       -9.2807567445
 C        -9.0052231000        2.4939811497       -8.8928126848
 C        -9.6910910417        3.4638349925       -9.9830402851
 O       -10.6915668255        3.1220500503      -10.5477273729
 C        -8.9234170348        4.7312359709      -10.3515402573
 C        -8.3883438370        4.7141871807      -11.8309895364
 C        -9.4625414228        5.3337745670      -12.7596860455
 O       -10.0673576691        6.2866378726      -12.3420925121
 C        -9.8554894030        4.6492396956      -14.1662741196
 C       -11.1462139955        3.9329229442      -13.7979013509
 O       -11.1415085437        2.7452032926      -13.4231932482
 C       -12.3927871402        4.8528662711      -13.6840140466
 C       -13.4391305523        4.3914238248      -12.6751361776
 C       -14.2959776586        3.0044173081      -13.2374809214
 O       -14.0347260737        1.9856077171      -12.6629406121
 C       -15.5667463746        3.2090255839      -14.0918430499
 C       -16.6856540938        3.9648426571      -13.1808435796
 O       -16.8449815226        3.4018063637      -12.1215446009
 C       -17.3727516832        5.2800196755      -13.4117709610
 C       -18.5934210989        5.8609731258      -12.5820537084
 C       -19.4985407705        6.8915914532      -13.4457499756
 O       -19.3882734897        6.9298265592      -14.6459450703
 C       -20.1936123772        7.9399506011      -12.4660432052
 C       -19.0555267332        9.0585168786      -11.9885980649
 O       -17.8910648274        8.8224550159      -12.1944981288
 C       -19.6583050292       10.1981558311      -11.2047581582
 C       -21.4553491359        8.5586296726      -13.2402220425
 C       -20.7078851884        7.3570821293      -11.1699549875
 C       -15.3586655713        4.0576628793      -15.3782266521
 C       -16.2398544018        1.8333600065      -14.5116517557
 C       -10.1526423181        5.9059989508      -15.0597375503
 C        -8.6859105177        3.7358939648      -14.6969287486
 C        -8.5902360816        3.3415760459       -7.5439208479
 C        -7.7336552417        1.8100249525       -9.4093527037
 C       -13.7365586504       -1.5452213347      -10.2316165335
 C       -12.0416799301       -2.6590630804       -8.6824402976
 C        -8.2625360433       -3.5072847622      -14.6563834189
 C        -7.9525270811       -5.6836698386      -13.1452787629
 C        -1.5000168087       -4.0793508913      -14.3965028169
 C        -1.3740694030       -6.5269769190      -14.9435134547
 C        -1.8112347126       -4.2937281540       -8.4630172095
 C        -1.3872946556       -1.7634656659       -8.6952104865
 C         4.5365215142       -5.5904604359       -6.7633408044
 C         5.1711739210       -3.6046687409       -5.4115850721
 C        10.8359032468       -4.5937816423      -11.2133013118
 C        10.1863538007       -7.0920075428      -11.7249265888
 C        12.1824184003       -9.8650232119       -5.0988172418
 C         9.6561612454       -9.5160620775       -4.9518432982
 C        11.7726634209       -3.2091786851       -2.4462527027
 C         9.7861287624       -2.0468809649       -3.7098023259
 H        14.0391521154       -3.1590457539       -4.5365226227
 H        13.0276330288       -1.8901536201       -3.8647422538
 H        13.4862458984       -1.9706754335       -5.6238208543
 H        10.0194040170       -5.5455599315       -1.8738740939
 H        11.6400758184       -5.7706449125       -2.5896952719
 H         9.2158738154       -7.2603609994       -3.8466246487
 H        10.0718592228       -7.7267495853       -2.4053611400
 H        12.4313995130       -9.0460952513       -7.6659866251
 H        12.8275440650       -7.2911825686       -7.5817198423
 H        10.3834075858       -8.0147926861       -9.1862926147
 H        12.0973453177       -8.2367673671       -9.7958797173
 H         7.9519367322       -3.8077709063      -10.0932228806
 H         8.8660363310       -4.0035620534       -8.6396061183
 H         6.8751641683       -6.1332064516       -8.2796378018
 H         6.0725472690       -4.9368549192       -9.2519602611
 H         2.6398114315       -3.2473170710       -6.7174803808
 H         2.6036908498       -4.3422632161       -8.1934344925
 H         1.8350986411       -2.4798368759       -9.4423192655
 H         2.0796426741       -1.4852269538       -7.9254246832
 H         0.2592985262       -5.4179379431      -10.0826116062
 H         1.5791688839       -4.4348167011      -10.6669201935
 H         1.1335280524       -5.8561533192      -12.4615394922
 H         0.4791563772       -4.2883314077      -12.8275667411
 H        -3.5914450278       -3.7145922683      -12.3740789630
 H        -3.3241364025       -5.3553266493      -11.4163930448
 H        -5.5452638151       -4.4252714172      -10.9596382941
 H        -5.7312207524       -5.8110358506      -11.8945636208
 H        -9.8234472261       -2.3257645752      -13.0192875528
 H        -8.5512777741       -1.4876828890      -12.3186970334
 H        -9.5058825997       -2.0596306192       -9.8900981365
 H       -10.5766417105       -3.2336134475      -10.5638986440
 H       -11.2190083268       -0.7887285841       -7.3113001454
 H       -12.7343169109        0.0504572162       -6.8532774436
 H       -10.5465257545        1.5243889009       -6.4121974130
 H       -11.7836965109        2.2450430608       -7.3604860871
 H        -8.0844773378        4.9230077047       -9.7318369686
 H        -9.5920290423        5.6531853777      -10.1617771645
 H        -8.1720440523        3.7371486902      -12.2026952362
 H        -7.4831885942        5.1932418337      -11.7580670431
 H       -12.8401766953        5.1618099028      -14.6319870944
 H       -11.9210935388        5.8201545131      -13.3080022449
 H       -14.1417537029        5.1734014044      -12.4407542448
 H       -12.9268640678        3.9902632733      -11.7279806000
 H       -17.6699073129        5.3132297601      -14.4964131841
 H       -16.5421037243        6.0318438286      -13.3645226658
 H       -18.4051223805        6.3187886206      -11.6293025171
 H       -19.2621686438        5.0572601807      -12.3942555650
 H       -19.6994387338        9.9833419640      -10.1293312191
 H       -20.5937264423       10.6387516787      -11.4019862725
 H       -18.9864667421       11.0543885091      -11.4428329192
 H       -21.0723148844        9.1782772522      -14.0228893726
 H       -21.9136762129        9.3421035797      -12.6792066820
 H       -22.0890323739        7.7278318009      -13.5829205052
 H       -19.8900624757        6.8784801163      -10.6027041836
 H       -21.3656589960        6.5212625369      -11.4151542606
 H       -21.1534501820        8.0836163527      -10.6060305685
 H       -15.9425853367        3.8449450284      -16.2759714377
 H       -14.3068861110        4.0430614417      -15.7159190279
 H       -15.4211255539        5.1426682862      -15.1714050295
 H       -16.3014189381        1.0564707191      -13.7821704822
 H       -15.7065228147        1.3538968591      -15.3424461460
 H       -17.2637573057        2.0400201418      -14.8374616148
 H        -9.2421280377        6.1255769829      -15.6831910862
 H       -10.5631068735        6.8008762682      -14.6196901523
 H       -10.9540068418        5.5546721824      -15.6942060487
 H        -8.7218204848        2.7101101285      -14.4194815214
 H        -7.6413622691        4.0503618120      -14.4183321338
 H        -8.6753949920        3.7571955746      -15.7623256767
 H        -8.5525492023        2.7416477689       -6.6179387214
 H        -9.3428753480        4.2442967242       -7.3634248779
 H        -7.7019680367        3.9025053799       -7.7567263523
 H        -7.2254480772        1.3644191427       -8.5565049262
 H        -7.1208606032        2.6473351468       -9.7778058885
 H        -8.0482885741        1.0420986749      -10.1472611817
 H       -13.9948837535       -0.6546647243      -10.8040034655
 H       -14.5144337990       -1.8502636559       -9.5791612023
 H       -13.5541220083       -2.2534699115      -11.0692314706
 H       -12.4736900629       -3.5286613899       -9.1274963007
 H       -12.5681265325       -2.5617124440       -7.6936488567
 H       -11.0120475115       -2.6716852817       -8.3691980133
 H        -9.3942224864       -3.4378439472      -14.7617179670
 H        -7.8923268018       -3.9684643552      -15.5819040915
 H        -7.9670896787       -2.4373157455      -14.7289605611
 H        -8.9514690967       -6.1617068889      -13.5228815247
 H        -7.9639026322       -5.8977780505      -12.0573961668
 H        -7.2024861242       -6.3734305800      -13.5844049535
 H        -1.8534717517       -3.9457729290      -15.3794578638
 H        -0.3736640492       -4.0024747356      -14.5403222518
 H        -1.7441964463       -3.3687275608      -13.5702558282
 H        -0.6631744431       -6.0721942482      -15.6120294680
 H        -2.2584504684       -6.9215109358      -15.5071386364
 H        -1.0587481371       -7.4416029815      -14.3988687324
 H        -2.8237654132       -4.0435094289       -8.3901066527
 H        -1.4997686335       -4.6301318583       -7.4788576272
 H        -1.6239375903       -5.2020163631       -9.0834382715
 H        -0.5706163473       -1.1873402391       -9.1618064565
 H        -1.4339825305       -1.3985897304       -7.6956628524
 H        -2.4081588085       -1.7613406191       -9.1455345048
 H         4.3093267392       -5.9157673739       -7.7476214062
 H         3.6055153515       -5.6456891279       -6.1861901622
 H         5.3651576844       -6.2852606472       -6.3894558431
 H         5.5622990956       -2.5775705448       -5.3788473196
 H         5.8399062686       -4.1776041791       -4.6503197429
 H         4.1715643557       -3.6032333720       -4.9437168248
 H        10.2961272757       -4.3390594117      -12.1521444908
 H        11.8682909676       -4.6735045321      -11.4102894334
 H        10.5999606953       -3.8373480162      -10.4454105036
 H         9.4362092910       -7.8088567848      -11.3389743437
 H        11.1546807294       -7.5452032645      -11.8368571893
 H         9.7724334756       -6.4927001026      -12.5706171259
 H        11.9955112318      -10.3549684970       -4.2097637134
 H        13.1623302046       -9.4111061626       -5.0866556324
 H        12.0037564401      -10.5984613670       -5.8966966224
 H         9.5149405654      -10.3054353601       -5.6732119686
 H         8.8943156732       -8.7972226489       -4.9275687161
 H         9.5072988919      -10.0386568266       -3.9928802009
 H        11.9539490439       -2.1451315935       -2.2445886225
 H        12.6637160404       -3.8148016357       -2.5386474516
 H        11.1211588332       -3.5403478468       -1.6421229932
 H         9.1013882605       -2.0708439957       -2.8301512384
 H         9.2280842617       -2.0015015722       -4.6340950794
 H        10.3435172127       -1.1713890579       -3.7277580050
 Na        9.7227911955       -4.7667352223       -6.9057246890
 Na      -12.1189373358        1.6421024984      -11.4215177080
