232

 C        13.3734899237       -2.9525365170       -4.1940595216
 C        11.9548345658       -3.3497615461       -4.5692510212
 O        11.7743150811       -3.5878739681       -5.7562678882
 C        10.7905275698       -3.1333026912       -3.6023180323
 C        10.0725402822       -4.5869998621       -3.5806982713
 O         9.2173928187       -4.8990901509       -4.3817374201
 C        10.6145508585       -5.6714031556       -2.6651243111
 C        10.3415115570       -7.0203604499       -3.1575433815
 C        11.5244617202       -7.5502589337       -4.0951316649
 O        12.6399775620       -7.1047634060       -3.9770169151
 C        11.2333085908       -8.6447387573       -5.2961636643
 C        11.0012639494       -7.7752345817       -6.6192676067
 O        10.0542630106       -7.0635753078       -6.7164072348
 C        11.9600131841       -7.7958438186       -7.8686910627
 C        11.3782045220       -7.3386979362       -9.1790642609
 C        10.9987075045       -5.9012910588       -9.4164666779
 O        10.9114199674       -5.0127559520       -8.5788499614
 C        10.2899318914       -5.6109172486      -10.8003104680
 C         8.8374835393       -6.0519779999      -10.2456092466
 O         8.5782289072       -7.2334306402      -10.1013449533
 C         8.0698245621       -4.8944516887       -9.6865329029
 C         6.6292533231       -5.2004412459       -9.0928048121
 C         6.5773335833       -4.4828791988       -7.7205933998
 O         7.5682765628       -4.0815833120       -7.1731663951
 C         5.2031578709       -4.4490690736       -7.0289988733
 C         4.2013187852       -3.9630383050       -8.0045645525
 O         4.5247108016       -3.2559334824       -8.9447839281
 C         2.5950562822       -4.1516414442       -7.8087553039
 C         1.9099153778       -2.8769672752       -8.3649170342
 C         0.3723410953       -2.8606042240       -8.0021399070
 O         0.0733876832       -2.5722956116       -6.8906744779
 C        -0.8677858294       -3.2022897235       -8.9976479911
 C        -0.2806637527       -3.3587564996      -10.4453497282
 O        -0.3783698509       -2.5667250113      -11.3306919344
 C         0.5298018255       -4.6776928223      -10.7301878934
 C         0.2751499925       -5.1927384095      -12.1391236743
 C        -1.0880702037       -5.8266816478      -12.3771801848
 O        -1.6490453780       -6.4756765854      -11.5119861318
 C        -1.7383896942       -5.6442000789      -13.8239491125
 C        -3.3218251468       -5.6475238651      -13.5192575359
 O        -4.0646186052       -6.2837800530      -14.2302859492
 C        -3.9204366169       -5.0403663594      -12.1778588936
 C        -5.4723618734       -5.1026864569      -12.2638497714
 C        -6.1806728538       -4.1132553345      -13.2146269325
 O        -5.4571574823       -3.2047649116      -13.5980499212
 C        -7.8238413355       -4.2119811053      -13.4273340379
 C        -8.4604067496       -3.6288759189      -12.0981969054
 O        -8.0945105742       -3.8494009801      -10.9959933189
 C        -9.7131386035       -2.7536075687      -12.2775877480
 C       -10.4474379810       -2.6736367445      -10.9596756941
 C       -11.3448650071       -1.5049000624      -11.0011496217
 O       -11.3229668102       -0.6062499658      -11.8076864273
 C       -12.3911361606       -1.3592117634       -9.6562739179
 C       -12.0970446382        0.0685897016       -8.9600428391
 O       -12.3526843254        1.1837289592       -9.4129805283
 C       -11.5081946064        0.1990470923       -7.5203719161
 C       -10.3634175193        1.2414151254       -7.5442868425
 C        -9.4818919650        1.1418226860       -8.8088502585
 O        -9.5661601849        0.2444187413       -9.6013679402
 C        -8.4327558766        2.3174535100       -8.9574451955
 C        -9.2462801540        3.2656445733      -10.0555711053
 O       -10.3693984951        3.0590369798      -10.3618682950
 C        -8.4087282942        4.5569315346      -10.5910477223
 C        -8.1757867830        4.5279133226      -12.0420588982
 C        -9.2974573099        5.3757488915      -12.7120011098
 O        -9.7018541766        6.3815685246      -12.2368120333
 C       -10.0319900597        4.8777942783      -14.0611774177
 C       -11.3919352990        4.2347907457      -13.5170685958
 O       -11.2997585851        3.0942018312      -13.1455308778
 C       -12.8244325366        4.9969964715      -13.3597385366
 C       -13.7235824095        4.2078183361      -12.4111799270
 C       -14.5279525575        2.9864570615      -12.8459675085
 O       -14.2343636961        1.8762951302      -12.4717702569
 C       -15.9035386408        3.1531403143      -13.6842774640
 C       -16.7759938009        4.1938746145      -12.8933390739
 O       -16.8869048869        4.1247116418      -11.6917334744
 C       -17.6889845675        5.1170117814      -13.7155712687
 C       -18.4177040253        6.2170368591      -12.8508493925
 C       -19.5671797818        7.0312855166      -13.3983298595
 O       -19.9559135830        6.8444131221      -14.5278040232
 C       -20.3988765920        8.0723277158      -12.4057115982
 C       -19.3096204967        9.0676282165      -11.7667325452
 O       -18.1190631316        8.7614335725      -11.9008607404
 C       -19.7688452458       10.3340977975      -11.2626736257
 C       -21.6314865432        8.7022454328      -12.9715141270
 C       -20.7612043773        7.2292824928      -11.1399824777
 C       -15.5946306975        3.4705026672      -15.1764408623
 C       -16.6226970839        1.8716106756      -13.5567755117
 C       -10.2861316179        6.1714878256      -14.9848822309
 C        -9.3285886841        3.8130693663      -14.9077830705
 C        -8.1725329395        3.1804571566       -7.7036456739
 C        -7.0717027960        1.8129502314       -9.4580568209
 C       -13.8825289436       -1.2832059727      -10.1378344897
 C       -12.2709644122       -2.4784369769       -8.5892229787
 C        -8.2150426331       -3.5089554443      -14.7461462584
 C        -8.1969740367       -5.7502108512      -13.4486562209
 C        -1.3466527640       -4.2698177024      -14.5277789598
 C        -1.5376024010       -6.7620699633      -14.7727277839
 C        -1.6088619111       -4.3996412657       -8.4687237090
 C        -1.7030137027       -1.9934442305       -9.0112781386
 C         4.8696198338       -5.8158520002       -6.2565798084
 C         5.3876687282       -3.3559422197       -5.9292269373
 C        10.3811158077       -4.1066982911      -11.3250997830
 C        10.5897550865       -6.4768554348      -12.0538515140
 C        12.4744253045       -9.4925622694       -5.3671060927
 C         9.9580937713       -9.4444192335       -5.2429702371
 C        11.4469614514       -2.9310202169       -2.1238806990
 C         9.7493990251       -1.9639172001       -3.9189758403
 H        13.6149607495       -2.9087643534       -3.0869139283
 H        13.4994610774       -2.0206504138       -4.6468468106
 H        14.0289482201       -3.6207521925       -4.7473271895
 H        10.1580588642       -5.4797458595       -1.6223373904
 H        11.7009170847       -5.5546753912       -2.6578503771
 H         9.4112284573       -7.1345092802       -3.7473769625
 H        10.0611201869       -7.7880735430       -2.3154715865
 H        12.3550156444       -8.7843926057       -8.0531030371
 H        12.8314281959       -7.2073314348       -7.5762529793
 H        10.4719868202       -7.9289410279       -9.4214576303
 H        12.0293038198       -7.5963361646      -10.0219084122
 H         8.0667386850       -4.0661901734      -10.3801211544
 H         8.6552194750       -4.6606040358       -8.7629819788
 H         6.5821959856       -6.3317851736       -9.1008142806
 H         5.7522842321       -4.8811111981       -9.6437461224
 H         2.2761542759       -4.0887663544       -6.7580313070
 H         2.3822531303       -5.0649233258       -8.3576176970
 H         2.0028672798       -2.6263503852       -9.4252439774
 H         2.3365803610       -1.9553093813       -7.8735131705
 H         0.4418430111       -5.5092874782      -10.0496037741
 H         1.5511062397       -4.4179062301      -10.5406220163
 H         0.9772799353       -6.0351244685      -12.3877852895
 H         0.4959645259       -4.4161324515      -12.8152014163
 H        -3.5239409292       -4.0247620917      -12.0505521104
 H        -3.5432930404       -5.7177767115      -11.3370691084
 H        -5.8559511406       -5.0688975157      -11.2179223804
 H        -5.7981976082       -6.1047250391      -12.4977707359
 H       -10.3332004114       -3.3481579230      -12.9462086738
 H        -9.5010350668       -1.8317207906      -12.8940266656
 H        -9.7202537320       -2.5035383415      -10.1483777720
 H       -10.9675672429       -3.5720402346      -10.5563827201
 H       -11.1124085959       -0.7699819923       -7.1816307728
 H       -12.2849245912        0.3914675279       -6.8586457339
 H        -9.7175935617        1.0765172291       -6.6797128256
 H       -10.7688129307        2.2558923098       -7.5064420535
 H        -7.5057051746        4.6291370913       -9.9733964716
 H        -8.9026631386        5.5011496684      -10.2544929020
 H        -8.1743930757        3.5290558384      -12.3978818848
 H        -7.2475234472        4.9795889381      -12.4149575933
 H       -13.3428110635        5.2155470620      -14.3364704679
 H       -12.8006970395        5.9986702034      -12.9121134350
 H       -14.5479898711        4.9330309649      -12.0507778370
 H       -13.2266270523        3.9505744542      -11.4666235655
 H       -18.5036915040        4.4748392565      -14.1348967173
 H       -17.1269293120        5.6702948660      -14.5007894345
 H       -17.7875441281        6.8565677860      -12.2911089069
 H       -18.9124238451        5.6401122570      -12.0833133826
 H       -20.5680765487       10.4627449725      -10.5449805513
 H       -20.0866347696       10.9649898549      -12.1407939393
 H       -18.8927134271       10.7963946334      -10.8781673009
 H       -21.3434389125        9.4973236151      -13.7274147171
 H       -22.1958805773        9.1400300819      -12.1114972209
 H       -22.2667467584        8.0047462502      -13.4753938949
 H       -19.8990038654        7.1231802494      -10.5378852014
 H       -20.9364135032        6.2069348571      -11.4202871846
 H       -21.5970145163        7.5737624608      -10.4688664889
 H       -16.3005418136        2.9561745631      -15.8485522608
 H       -14.6077575039        3.0504123325      -15.4136325788
 H       -15.4888391053        4.4889236538      -15.5548782181
 H       -17.5130721546        1.7194060941      -14.2063231822
 H       -17.0481956444        1.8047718403      -12.5821995221
 H       -15.9637540788        0.9960082360      -13.6939682884
 H        -9.4287919255        6.5257457104      -15.5394084322
 H       -10.4563393438        7.0293406748      -14.3524891878
 H       -11.1612880530        5.9372424997      -15.5758478170
 H        -9.1425502115        2.8797164850      -14.3374772356
 H        -8.4048055140        4.1969621029      -15.2563416519
 H        -9.8930168923        3.4364091266      -15.8044329400
 H        -7.4274036408        2.5741859904       -7.0952759581
 H        -9.0189111748        3.3038461403       -7.1880631505
 H        -7.7168403014        4.1881798746       -7.9911284250
 H        -6.7761513414        1.1215718531       -8.6191957585
 H        -6.3374685099        2.6294896049       -9.4709253606
 H        -7.2558638835        1.2956785241      -10.3688143292
 H       -13.9921856955       -0.2552651537      -10.5252760683
 H       -14.6032117819       -1.4673504584       -9.3103563080
 H       -14.0536953747       -1.9437518581      -10.9522370824
 H       -12.6122989271       -3.4879823497       -8.9857847904
 H       -12.8637115244       -2.2252893991       -7.7539664485
 H       -11.2276126136       -2.6328435168       -8.2032117046
 H        -9.2929007681       -3.5822125271      -14.9919469821
 H        -7.6313887392       -3.9679136947      -15.5823633967
 H        -7.8799903366       -2.4947176277      -14.9005530930
 H        -9.2419000192       -5.8281116791      -13.8048797689
 H        -8.0854935258       -6.1988764225      -12.4006671991
 H        -7.6050649077       -6.4387920644      -14.1659966920
 H        -2.0247139897       -4.2373704523      -15.4274017821
 H        -0.2940763122       -4.1944014781      -14.6609387289
 H        -1.6549703113       -3.3802117126      -13.9510974544
 H        -0.5526281171       -7.3388740344      -14.8325088896
 H        -1.7681065963       -6.2879360190      -15.7230280247
 H        -2.3341912006       -7.4856953869      -14.5544004206
 H        -1.5803224349       -4.3864690185       -7.3641066309
 H        -1.3700912140       -5.3842667941       -8.8098733124
 H        -2.5976438832       -4.2493229970       -8.7277477782
 H        -1.2937072962       -1.1113222936       -9.5334429083
 H        -2.0422868342       -1.7337973754       -7.9658095031
 H        -2.5438162035       -2.3409575340       -9.6058912290
 H         4.5315657230       -6.5941284559       -6.9943879874
 H         4.0474752594       -5.7795011352       -5.5128436215
 H         5.7365918223       -6.1877729457       -5.7511450672
 H         5.6387884467       -2.3278791701       -6.3034543621
 H         6.1637474108       -3.5440023950       -5.1801765202
 H         4.4770048469       -3.3047816993       -5.2657280023
 H         9.4152233306       -3.9277629267      -11.7528978590
 H        11.1484619553       -4.0759257902      -12.1183733720
 H        10.4535273560       -3.2943504736      -10.5705122011
 H        10.3477311193       -7.5104013632      -11.7871533200
 H        11.6547045651       -6.2891970479      -12.3808404124
 H         9.7900887787       -6.1334037669      -12.7248763072
 H        12.3970721191      -10.2016243630       -4.5308020850
 H        13.3328457412       -8.8766235673       -5.1900992762
 H        12.5339726605       -9.8823939189       -6.3242036551
 H         9.6310645228       -9.6285511551       -6.2861101854
 H         9.0714741771       -8.8677409305       -4.8789589573
 H        10.0257177529      -10.3872314458       -4.7403471287
 H        11.7013104219       -1.9149960254       -2.1468373778
 H        12.1587076015       -3.6905959390       -1.9384669668
 H        10.6164639871       -2.9637161588       -1.4085630696
 H         9.0818190985       -1.9900584395       -3.1133438794
 H         9.2099551347       -2.0581976530       -4.8485565200
 H        10.2316562724       -0.9613228594       -3.8524252045
 Na        9.8305605990       -4.6805722699       -6.7016661830
 Na      -11.9474635361        1.6279029959      -11.6528563653
