232

 C        13.4478205740       -2.9970166013       -4.0676531774
 C        12.0144887886       -3.2787542811       -4.5613432841
 O        11.7880267566       -3.7240919161       -5.6820261176
 C        10.7456001984       -3.2120655305       -3.4454109857
 C        10.1013567261       -4.6334062199       -3.5470302931
 O         9.2725454666       -4.7861123039       -4.4599898781
 C        10.6644291685       -5.6585507323       -2.6120050692
 C        10.4791838352       -7.0482212375       -3.2018538121
 C        11.5534398633       -7.4897876587       -4.1528437358
 O        12.7117744615       -7.1749893963       -3.9442377972
 C        11.2730056655       -8.5285354718       -5.3595733851
 C        11.0499181971       -7.6731916218       -6.6472618398
 O         9.9845545862       -7.0964984421       -6.7397090506
 C        12.0756576597       -7.7123875536       -7.7959333068
 C        11.5722805688       -7.2831084710       -9.2064668296
 C        10.9263797433       -5.7995997174       -9.4784154579
 O        10.8186869597       -4.9409971094       -8.6115992271
 C        10.1874797227       -5.5536408491      -10.8572787170
 C         8.8153531059       -5.9435337626      -10.4024922748
 O         8.5661882096       -7.1417238523      -10.2679725001
 C         7.9094024851       -4.8724007134       -9.8859586053
 C         6.6283431766       -5.3563089151       -9.1105528647
 C         6.5177629272       -4.5815648995       -7.7903917748
 O         7.5631984343       -4.0918772371       -7.3181736089
 C         5.1626070071       -4.4538823644       -7.0256028282
 C         4.0538614295       -3.9699297757       -8.0666672020
 O         4.4200403073       -3.4344799831       -9.0570443766
 C         2.6142807939       -4.3246874449       -7.7383703432
 C         1.8700961774       -3.0358929919       -8.2890023269
 C         0.3290931315       -2.8873836962       -8.0279473578
 O         0.0268185042       -2.3777307469       -6.9848119504
 C        -0.8463846177       -3.2034182713       -9.0546327065
 C        -0.1937292108       -3.4059754026      -10.5190758512
 O        -0.2483521518       -2.4697208735      -11.2915662996
 C         0.6360459071       -4.6632119658      -10.8020639222
 C         0.3084510102       -5.2904375206      -12.1643668374
 C        -1.0944186316       -5.8415155209      -12.3534756184
 O        -1.6016133756       -6.5498974240      -11.5074383910
 C        -1.8637224744       -5.6070918493      -13.7236807635
 C        -3.3635913157       -5.6617807891      -13.5282567002
 O        -4.0081849248       -6.3599857231      -14.2970085960
 C        -4.0366028725       -5.0318777403      -12.2672426410
 C        -5.5394888668       -5.1217763079      -12.2608226448
 C        -6.2045667544       -4.1085213828      -13.1730410004
 O        -5.6432514260       -3.1657100017      -13.7481006077
 C        -7.7268560265       -4.2265905316      -13.3294199752
 C        -8.4921267414       -3.6967473802      -12.1075572221
 O        -8.1118210127       -3.8114241345      -10.9734524631
 C        -9.9223185114       -2.9161697750      -12.3110826792
 C       -10.5798744329       -2.7460614953      -10.9212073539
 C       -11.4058004633       -1.4409372647      -10.8056025205
 O       -11.2571374900       -0.6703272988      -11.7271488666
 C       -12.4276876855       -1.2585399370       -9.6503264711
 C       -12.0373301292        0.0370007002       -8.9735351368
 O       -12.3287917284        1.0806559324       -9.4611765666
 C       -11.3174451965        0.1006816789       -7.5560046436
 C       -10.3457448882        1.3322149789       -7.6816104994
 C        -9.3461858742        1.1782789735       -8.8474154046
 O        -9.4132994845        0.2884829563       -9.6477919743
 C        -8.2902466253        2.3241381931       -9.0032306618
 C        -9.0228211237        3.2594215307      -10.0081090748
 O       -10.1833623711        2.9763138396      -10.3058363010
 C        -8.3857016188        4.4683660040      -10.5710742355
 C        -8.1991519835        4.5080019991      -12.1083032981
 C        -9.3144912413        5.3546165515      -12.7833768422
 O        -9.6088265659        6.3515978969      -12.1640871903
 C       -10.1529768378        4.9169472077      -14.0832737825
 C       -11.5376004775        4.2729178679      -13.5162777626
 O       -11.3454375041        3.1461702528      -13.1760875477
 C       -12.8100810762        4.9802080844      -13.3300498640
 C       -13.7984941113        4.1927402327      -12.3127627536
 C       -14.5482858834        2.9446652949      -12.7672950086
 O       -14.1044343073        1.8495193362      -12.4961209710
 C       -15.9186537975        3.0272924609      -13.5412782526
 C       -16.8609005172        4.1457577478      -12.8770964427
 O       -16.6636637183        4.3432672740      -11.7138969096
 C       -17.8708239961        5.0400854292      -13.7457949835
 C       -18.4694378235        6.1569089180      -12.8159700579
 C       -19.6667490793        6.9698563711      -13.3981525151
 O       -20.0552274667        6.9261396369      -14.5383724547
 C       -20.3367344701        7.9396473820      -12.3192741288
 C       -19.3300763350        9.1862900230      -11.8065787790
 O       -18.1359033988        8.9443778631      -11.7564826737
 C       -19.9441253955       10.4554969939      -11.2658904879
 C       -21.4600394147        8.7037429306      -13.0649481527
 C       -20.8185681528        7.2200759083      -11.0023677390
 C       -15.6185847926        3.4538277801      -15.0493670033
 C       -16.7642153690        1.7045643441      -13.5312072321
 C       -10.3068819511        6.2614594415      -14.8946298948
 C        -9.4928895189        3.8461523121      -14.9582022690
 C        -8.0922286076        3.1672804151       -7.7430604290
 C        -6.9173033979        1.8936609603       -9.5625496268
 C       -13.8717095525       -1.1918804010      -10.1676669003
 C       -12.3395312697       -2.5057014032       -8.7818161666
 C        -8.1091438806       -3.5096940639      -14.6162685388
 C        -8.2563376127       -5.6593841076      -13.5321983283
 C        -1.3812240344       -4.2881253338      -14.4099503415
 C        -1.4171285288       -6.8553404166      -14.6628193810
 C        -1.5612021376       -4.4513553796       -8.4987704166
 C        -1.8050803738       -1.9079675521       -9.0185486417
 C         4.9045395912       -5.6978115763       -6.2964655858
 C         5.3935187459       -3.3445489160       -5.9333016115
 C        10.3090402906       -4.0640817690      -11.2539760198
 C        10.6695948194       -6.5137907750      -12.0078040896
 C        12.5508682362       -9.4671734196       -5.2957548923
 C        10.0101688269       -9.3798215343       -5.1210394237
 C        11.2365012296       -2.8964441330       -2.0040225659
 C         9.8540753397       -2.1109710267       -3.9176163629
 H        13.4007147505       -3.1661592696       -2.9830482718
 H        13.9136707427       -1.9782361451       -4.3693728391
 H        14.0846546765       -3.7994672990       -4.5421587349
 H        10.1319615121       -5.4505947270       -1.6315254724
 H        11.7221346122       -5.4996402582       -2.5405585287
 H         9.5410823670       -7.3263638440       -3.6943931048
 H        10.4419344132       -7.7907897344       -2.3965100517
 H        12.4939277192       -8.7747482296       -7.8902264018
 H        12.9701188553       -7.1352814337       -7.5458774962
 H        10.7857515422       -7.8926070623       -9.5599631825
 H        12.3616586616       -7.4984966600       -9.9337669067
 H         7.5518531180       -4.3304650418      -10.7125854081
 H         8.4900440649       -4.2271327405       -9.1698378545
 H         6.7500305899       -6.4109572510       -8.9288467024
 H         5.7100354239       -5.2591117963       -9.6580993694
 H         2.4851881323       -4.4279187435       -6.6360426810
 H         2.4160686392       -5.2830249143       -8.2860634664
 H         2.0067453749       -2.9328020526       -9.3744991600
 H         2.3135336690       -2.1002088924       -7.9264753849
 H         0.5684976314       -5.4090268468       -9.9883829238
 H         1.6598422913       -4.3936492230      -10.6812657213
 H         1.0026696776       -6.1476447269      -12.4321646230
 H         0.5401010034       -4.4454772781      -12.9394455646
 H        -3.7035448948       -4.0454451117      -12.1834355254
 H        -3.5718049542       -5.6262362031      -11.4874916518
 H        -5.9443652070       -5.1231729600      -11.2378756167
 H        -5.8886490957       -6.1606796558      -12.6052722007
 H       -10.6658855941       -3.4354071647      -13.0350588448
 H        -9.6832423012       -1.9688252090      -12.7826434822
 H        -9.7334213249       -2.5668566460      -10.2531115637
 H       -11.0179082354       -3.6090318970      -10.4726241729
 H       -10.8308776971       -0.8671254243       -7.3631899710
 H       -12.0264377575        0.1692259550       -6.7677146892
 H        -9.8970778121        1.6058253661       -6.7580833320
 H       -10.9972275917        2.1435676428       -8.0541603154
 H        -7.3783828899        4.5895771006       -9.9968418283
 H        -8.9109989711        5.2977848077      -10.1614201310
 H        -8.2163633789        3.4353225536      -12.5615186877
 H        -7.1700665878        4.9518783740      -12.3859274453
 H       -13.3031903450        5.1580324194      -14.3112235053
 H       -12.7387383457        5.9803367127      -12.9499086166
 H       -14.5337982799        4.9605143704      -11.9222642961
 H       -13.2981734074        3.8668242359      -11.3891030873
 H       -18.6808750018        4.4824746217      -14.2309814908
 H       -17.2685733927        5.6419325563      -14.4307195181
 H       -17.7324680028        6.9408958395      -12.6177278513
 H       -18.6746913979        5.7518969295      -11.8160456198
 H       -20.8452111398       10.3600618773      -10.6559365437
 H       -20.1905273316       11.2562514726      -12.0057872274
 H       -19.1772482026       10.8517696426      -10.5522829709
 H       -21.0850315805        8.9337289052      -14.0659242505
 H       -21.8147910950        9.5453351278      -12.4715857600
 H       -22.4477297574        8.0180321302      -13.2256930122
 H       -20.0410631531        6.9860637366      -10.3451448894
 H       -21.4330428281        6.3800039343      -11.1388613278
 H       -21.4664291036        7.9785986569      -10.4592176471
 H       -16.3665357579        2.9773440125      -15.7083101091
 H       -14.6194268074        3.1827681955      -15.4587423797
 H       -15.7038767382        4.5370307194      -15.2879075975
 H       -17.8189355573        1.7886887947      -13.5194344555
 H       -16.5400783229        1.0110929296      -12.7082688575
 H       -16.5172735098        1.1609178450      -14.4320224243
 H        -9.5229236492        6.5425402609      -15.5381109551
 H       -10.3193898760        7.0838577897      -14.1446697085
 H       -11.2742213565        6.1890387621      -15.4435558645
 H        -9.7845713494        2.8455074872      -14.6195635564
 H        -8.4337536673        3.9118055877      -15.1223815333
 H        -9.9410747750        3.8781311489      -15.9372111707
 H        -7.5751431869        2.5222843841       -7.1422427338
 H        -8.9822291414        3.6310888307       -7.2464934129
 H        -7.3517104599        3.8889978452       -8.0702368704
 H        -6.3839971369        1.3926120525       -8.7769933915
 H        -6.3689482911        2.7718198724       -9.8970031177
 H        -7.2864076773        1.2564693479      -10.4516985756
 H       -14.1340686203       -0.1923908327      -10.4491412383
 H       -14.5454392534       -1.5374840295       -9.2820602055
 H       -13.9935579009       -1.8903440988      -10.9992457824
 H       -12.5059702279       -3.3589975498       -9.4576917392
 H       -13.0823984583       -2.5552167526       -7.9412437186
 H       -11.3049728953       -2.7107460364       -8.4076537061
 H        -9.1364031656       -3.5144017513      -14.8473982722
 H        -7.5507769878       -3.9056110662      -15.5066191612
 H        -7.7030837471       -2.4540589042      -14.6499238319
 H        -9.2046554644       -5.5596248374      -14.0786028062
 H        -8.3446459974       -6.3636901272      -12.6447445081
 H        -7.6129686788       -6.1774200150      -14.2249356127
 H        -2.0458107599       -4.2381477742      -15.3144878333
 H        -0.3065371620       -4.3734971019      -14.5484349363
 H        -1.6086013317       -3.3517514926      -13.9053173918
 H        -0.3354858891       -7.1948810865      -14.3194671854
 H        -1.3954469955       -6.5714542607      -15.6726986161
 H        -2.0590049609       -7.7454535037      -14.4323407108
 H        -1.3759135047       -4.6849030721       -7.4411678295
 H        -1.5064369028       -5.3600483199       -9.0763610283
 H        -2.6280267989       -4.1571572482       -8.5285003169
 H        -1.4782704641       -1.1173543599       -9.8177869320
 H        -1.6935445007       -1.4859666368       -7.9911590375
 H        -2.8681534876       -2.1702365341       -9.2844508192
 H         4.2529657525       -6.2809576982       -7.0066716994
 H         4.3056972943       -5.6046955042       -5.3890164726
 H         5.7206097554       -6.2982771516       -6.0195753679
 H         5.6454660147       -2.3579639450       -6.4399594164
 H         6.2010227804       -3.4840701338       -5.2430618915
 H         4.5477990324       -3.1916101205       -5.2209626139
 H         9.4935695681       -3.8652457942      -11.9289072048
 H        11.2946412775       -3.8212999500      -11.7162749766
 H        10.0898777291       -3.4691171966      -10.4239329691
 H        10.0864634903       -7.4724870163      -11.8695067724
 H        11.7767924402       -6.5870220300      -11.9150526043
 H        10.3273991230       -6.0438758941      -12.9334369663
 H        12.5873144145       -9.8200099042       -4.2736260178
 H        13.4385804815       -8.9450661695       -5.5230972549
 H        12.4278653573      -10.2329103520       -6.0286868839
 H         9.5043352547       -9.6112254420       -6.0447836488
 H         9.1715842694       -8.9539572064       -4.5833925141
 H        10.3345201314      -10.2688888664       -4.6229669977
 H        11.3558188896       -1.8381390562       -2.1196907359
 H        12.1268603006       -3.5124266829       -1.8214174001
 H        10.4739394473       -3.0594950248       -1.2984200038
 H         8.9933979301       -2.1285382435       -3.2798228485
 H         9.5187034456       -2.3467512621       -4.9077550287
 H        10.2679108488       -1.1099257075       -3.8406546304
 Na        9.7297572094       -4.5946525093       -6.6391573195
 Na      -11.9935020489        1.6269481049      -11.5628419288
