232

 C        13.5698456094       -3.0436861265       -3.9255509612
 C        12.0774951288       -3.3168002424       -4.3375992935
 O        11.8317854796       -3.7657517817       -5.4316504515
 C        10.7898009923       -3.2952521904       -3.3897956091
 C        10.1216105451       -4.6582526461       -3.3672354375
 O         9.3653259074       -4.9030645690       -4.2846414880
 C        10.6991458926       -5.7799326018       -2.4231919137
 C        10.4585442691       -7.1036745920       -3.2313920330
 C        11.6865662002       -7.4625120381       -4.1639902485
 O        12.7838513321       -6.9902085709       -4.0064234556
 C        11.3841153885       -8.5207607078       -5.3763471967
 C        11.0373859328       -7.5854043967       -6.6606900844
 O         9.9721064526       -6.9797232256       -6.7050512807
 C        12.1348038883       -7.1899840033       -7.6901265332
 C        11.7527065368       -7.0708162197       -9.1671647585
 C        10.9472935872       -5.7943477924       -9.3365336161
 O        10.9317045393       -4.8481781931       -8.5695660754
 C        10.1659137918       -5.5345141459      -10.7601454594
 C         8.5934026951       -5.9692528025      -10.6655891544
 O         8.3253426224       -7.1463214577      -10.6690334913
 C         7.4329641085       -4.9816415453      -10.3668809816
 C         6.6576759262       -5.5234437197       -9.0295626663
 C         6.5828884142       -4.5761546045       -7.8143584257
 O         7.5666280551       -4.0648157528       -7.3655294428
 C         5.1668890632       -4.4462412399       -7.1753648595
 C         4.0352848424       -4.1979791664       -8.0952405328
 O         4.2436005644       -3.7997333567       -9.2450256985
 C         2.4967209625       -4.1858838121       -7.6354952575
 C         1.8286527216       -2.9985736154       -8.2674895196
 C         0.2967316378       -2.7692561845       -7.9304666655
 O        -0.0759176046       -2.2016262423       -6.9380695861
 C        -0.7536084034       -3.1799991593       -9.1067434062
 C        -0.0599379813       -3.3555360343      -10.4824719645
 O        -0.0404030313       -2.4844860466      -11.3207997396
 C         0.6820783812       -4.7484774213      -10.7835082447
 C         0.3350155450       -5.2839143028      -12.2013545747
 C        -1.0755346005       -5.8992354520      -12.2681415247
 O        -1.4486946313       -6.5365450801      -11.2949451309
 C        -1.8021330851       -5.7936205270      -13.6448835563
 C        -3.3994237037       -5.8755686726      -13.5493286613
 O        -4.0889992219       -6.4266947902      -14.3726272831
 C        -4.0748283341       -4.9374216480      -12.3811312071
 C        -5.5801548066       -5.1631626943      -12.3066924010
 C        -6.3016485254       -4.1850949927      -13.2533377331
 O        -5.6817916885       -3.2383130770      -13.6856357489
 C        -7.8160222116       -4.1959630021      -13.5021815905
 C        -8.6012842357       -3.7106707022      -12.0670320968
 O        -8.0223815629       -3.8264395695      -11.0199623380
 C       -10.0706599114       -3.1627918374      -12.3068899064
 C       -10.7525276180       -2.8670277183      -11.0108583911
 C       -11.4917878429       -1.5029143492      -10.8480987225
 O       -11.2757012980       -0.6012488038      -11.6171147396
 C       -12.4807549809       -1.3292527511       -9.6154915333
 C       -12.0040604587       -0.0276968563       -8.9091345810
 O       -12.5442670834        1.0442714933       -9.2379436651
 C       -10.9274285635       -0.1029392321       -7.8048860003
 C       -10.1380561899        1.2254411132       -7.7402956579
 C        -9.0887051477        1.1860469268       -8.7997034896
 O        -8.9125217952        0.2043419277       -9.4781184798
 C        -8.0918656613        2.4292792848       -9.1115402401
 C        -8.8491680071        3.2990233562      -10.1280484319
 O        -9.9546086144        3.0336222372      -10.4881268531
 C        -8.0474820575        4.4134799411      -10.8460214254
 C        -8.4623311539        4.3110926093      -12.3230615830
 C        -9.3993168464        5.3974650555      -12.7517866822
 O        -9.6686601191        6.3803399172      -12.1593656680
 C       -10.3421939572        4.9947050271      -14.0625290231
 C       -11.5404576917        4.1834102486      -13.4915256634
 O       -11.3979219661        3.0180910313      -13.1202281150
 C       -12.9496327214        4.8847648547      -13.2692485067
 C       -13.8544439836        4.2273081741      -12.2795621383
 C       -14.5956080973        3.0092197815      -12.7112450478
 O       -14.0978382489        1.9069537754      -12.6593853606
 C       -15.9277939075        3.1739542017      -13.5070102580
 C       -16.8953010350        4.2101439683      -12.7723160118
 O       -16.5237258462        4.7415745387      -11.7518867434
 C       -18.1648119151        4.8215133261      -13.4265391707
 C       -18.5140092460        6.1288802716      -12.6085455805
 C       -19.5391161551        7.0393494430      -13.2259179877
 O       -19.9180576638        6.7139732570      -14.3423387735
 C       -20.3494218764        8.0744531751      -12.3235434150
 C       -19.4047565534        9.1968921499      -11.7697264508
 O       -18.1985546817        9.0933477376      -11.6697033972
 C       -20.1019332056       10.4785896338      -11.2289208494
 C       -21.4983283578        8.6429307206      -13.1538320057
 C       -20.9413439600        7.4157104612      -11.1038805684
 C       -15.6290527849        3.3979829225      -14.9350951946
 C       -16.6384557860        1.8175766304      -13.4019597932
 C       -10.7889296159        6.3014943233      -14.6641987240
 C        -9.5018195737        4.1237270611      -15.0325478739
 C        -7.7567971171        3.1563877394       -7.7681615699
 C        -6.8650620366        1.8196042510       -9.6881442804
 C       -13.8447324339       -1.1161667023      -10.3753890910
 C       -12.6076842559       -2.4753826523       -8.6482515697
 C        -8.3037862967       -3.2362298178      -14.6062794315
 C        -8.2959179999       -5.6674576319      -13.7006772886
 C        -1.6659964685       -4.3769216941      -14.3010420978
 C        -1.1500632831       -6.9034290942      -14.5162962120
 C        -1.5375120782       -4.5348769595       -8.7102970793
 C        -1.7871340295       -2.0856680800       -9.2436261062
 C         4.8137015502       -5.8111357987       -6.3996975646
 C         5.2617237765       -3.3140834797       -6.2035984068
 C        10.4574483159       -4.1274269396      -11.2346156367
 C        10.8512283805       -6.4269235837      -11.9033329460
 C        12.5740998698       -9.3709289535       -5.6753415082
 C        10.2097378287       -9.4061573498       -5.0383821559
 C        11.0806098765       -2.7833541704       -1.8682239455
 C         9.8800434723       -2.1818891564       -4.1349267568
 H        13.7555049438       -3.3756019172       -2.8843757785
 H        13.7908236983       -2.0676674631       -4.0938700339
 H        14.1589331885       -3.5832756698       -4.6235583832
 H        10.1297518737       -5.8196929326       -1.5407867382
 H        11.7787971154       -5.6347655006       -2.2380308771
 H         9.6019263563       -7.1074153593       -3.8508174353
 H        10.1434066353       -7.8965780232       -2.5536876896
 H        13.0031216319       -7.7824391158       -7.6587052604
 H        12.5497835200       -6.1806613042       -7.4306488026
 H        11.0959560271       -7.8109130325       -9.7233713118
 H        12.6827907731       -7.1220202811       -9.7617333926
 H         6.5863056749       -5.0502058794      -11.1086550330
 H         7.7279851870       -3.9780007885      -10.1774419167
 H         7.1601341526       -6.4096317280       -8.5899161319
 H         5.6567565693       -5.8326579289       -9.3328115119
 H         2.4727948409       -4.1259791887       -6.5317727436
 H         1.9424826757       -5.1322645272       -7.9182454836
 H         2.0456498144       -2.8999235133       -9.3220234682
 H         2.1823979327       -2.0876667520       -7.7963330477
 H         0.5457691116       -5.5382820263      -10.0464107510
 H         1.7997612177       -4.6261674511      -10.6702049220
 H         1.0082223787       -6.1269058982      -12.3754854673
 H         0.6169068652       -4.5698499179      -12.8667261517
 H        -3.9029793038       -3.8710827928      -12.6894304829
 H        -3.4480445845       -5.1487190689      -11.5026733607
 H        -6.0440056426       -4.7892087019      -11.3585112200
 H        -5.8220290130       -6.1907605436      -12.3270384729
 H       -10.6819820661       -3.8109960396      -12.8492375939
 H       -10.0550261663       -2.1797132390      -12.8677567999
 H       -10.0455028506       -2.8495357896      -10.1716137295
 H       -11.4925634889       -3.6100466232      -10.6526102846
 H       -10.4031098796       -1.0688183791       -7.8304030174
 H       -11.5143716662       -0.1391217524       -6.8246778840
 H        -9.6492975770        1.2230778538       -6.7257897326
 H       -10.8389854436        2.0515486126       -7.8639133936
 H        -7.0271523425        4.4157308403      -10.7647992355
 H        -8.3870829324        5.3625657748      -10.3448723194
 H        -8.8805947139        3.4096823946      -12.6324286819
 H        -7.5445940712        4.4095045214      -12.8579400756
 H       -13.5451868240        5.2057340696      -14.0947690653
 H       -12.8120483581        5.8304308816      -12.7052073278
 H       -14.5179067423        4.9757186839      -11.9332091151
 H       -13.3444793386        3.9432883029      -11.3743744695
 H       -19.0013676707        4.1482823283      -13.3897600711
 H       -17.8912479976        5.1603075904      -14.4111891194
 H       -17.5652752269        6.6625366291      -12.3487870908
 H       -18.9089796169        5.8434124048      -11.6147536130
 H       -21.1510511744       10.2610536232      -10.9424684156
 H       -20.2804525760       11.0821586794      -12.1168926404
 H       -19.7873737774       11.0643123083      -10.3954420343
 H       -21.2375240466        8.8113380310      -14.2066250512
 H       -21.9428984252        9.4791676308      -12.5819899293
 H       -22.3303252999        8.0674689224      -13.1576805472
 H       -20.2051296289        6.7081963752      -10.6289178119
 H       -21.9356434553        6.9300666410      -11.3086246865
 H       -21.2129201550        8.0680790655      -10.2870262807
 H       -16.4574663145        3.7884273526      -15.5183221180
 H       -15.3264735010        2.4514910323      -15.3850745843
 H       -14.8361205704        4.1100900563      -15.1097562951
 H       -16.7997933926        1.5452226432      -12.3355861346
 H       -16.0729640080        1.0269801253      -13.8423355853
 H       -17.6444432350        1.7814387560      -13.8519944938
 H        -9.8629649480        6.8073591104      -15.0937804891
 H       -11.1782990137        6.9950431115      -13.9246455536
 H       -11.3867067405        6.0926331136      -15.5371866612
 H        -9.6306045050        3.0772503339      -14.8135873131
 H        -8.4564808257        4.4101348596      -15.0425097129
 H        -9.8608836958        4.2266774219      -16.0718909492
 H        -7.6820730969        2.4507202370       -6.8390336454
 H        -8.4462799392        3.8947700680       -7.6826896505
 H        -6.6938106796        3.5524581963       -7.8788018588
 H        -6.2898684778        1.5309885698       -8.7951652820
 H        -6.3892379981        2.6214820794      -10.2299887715
 H        -7.1599244797        1.0605103241      -10.2960654198
 H       -13.6991576457       -0.3135564001      -11.1403000769
 H       -14.6336071553       -0.8292839199       -9.7406951813
 H       -14.0777133498       -2.0755984185      -10.8343343647
 H       -13.1633471394       -3.3193637803       -9.0628052077
 H       -13.1126372659       -2.1487487262       -7.7860920053
 H       -11.6676362646       -2.9628104479       -8.4554161818
 H        -9.3909672684       -3.4108742996      -14.7994754391
 H        -7.8888748667       -3.3600720740      -15.5790014007
 H        -8.1362144640       -2.2299553670      -14.3627770146
 H        -9.3550555285       -5.7427969017      -13.6969376468
 H        -8.0021927476       -6.1579508891      -12.8177160463
 H        -7.8171196186       -6.1947227320      -14.5327401345
 H        -2.5698638881       -4.0315871748      -14.7268641701
 H        -0.7443203865       -4.2147055270      -14.8461938371
 H        -1.6751658701       -3.7314406990      -13.4236142801
 H        -0.1376762350       -6.6651245209      -14.7003546843
 H        -1.7191933980       -6.9856704924      -15.4521211039
 H        -1.0806520831       -7.7724640003      -13.9550164234
 H        -0.8446728666       -5.1031570881       -8.0470421590
 H        -1.5580416408       -5.1695516676       -9.6377419339
 H        -2.4888771508       -4.5561287911       -8.2067450221
 H        -1.4020800952       -1.4442087897       -9.9902881364
 H        -1.8231342541       -1.5626346114       -8.2788236043
 H        -2.7383005880       -2.3680323841       -9.6433444272
 H         4.4472034854       -6.6011658056       -7.0005052451
 H         4.1486079212       -5.6786237462       -5.5605571158
 H         5.7272438774       -6.1460605454       -5.8761338649
 H         5.5698748316       -2.3831544217       -6.5675143858
 H         5.9538938652       -3.5966848938       -5.4187201135
 H         4.3765764571       -3.1306148085       -5.6507489551
 H        10.1513090295       -3.8447373465      -12.2308589398
 H        11.5074493049       -4.0098427656      -11.0956860696
 H        10.0301841378       -3.4050060329      -10.4784575045
 H        10.4052015068       -7.3726427780      -11.9083564931
 H        11.9065908008       -6.3548419483      -11.6775429847
 H        10.7575740799       -5.9344487128      -12.8834604010
 H        12.9915541439       -9.6711880875       -4.6847120735
 H        13.3418411684       -8.8103068065       -6.2593169281
 H        12.2867370299      -10.2506860040       -6.2732443370
 H        10.0885578319      -10.2890379734       -5.6385771918
 H         9.3077509490       -8.8994337680       -5.3777154578
 H        10.1949356353       -9.6346014031       -3.9887033499
 H        11.6037053411       -1.8366115017       -1.9666261469
 H        11.5460762922       -3.5609945414       -1.2989118629
 H        10.0175525435       -2.5816402861       -1.5529602639
 H         8.8502758234       -2.0500660397       -3.7801786748
 H         9.8540262159       -2.2864843433       -5.2343679692
 H        10.4595975647       -1.2886480693       -3.8520361831
 Na        9.7045312904       -4.5333027718       -6.6078173016
 Na      -12.0015787195        1.6461763341      -11.4761378260
