232

 C        13.4777728300       -3.2140398890       -3.6784086668
 C        12.1049308069       -3.4540260021       -4.2720056926
 O        12.0451312446       -3.9225565443       -5.3869985153
 C        10.8195060282       -3.3258179647       -3.4035087357
 C        10.0924658677       -4.7142355348       -3.4608176313
 O         9.1749743010       -4.9307257880       -4.1882108144
 C        10.7203992361       -5.7978704971       -2.5445679334
 C        10.6876182751       -7.2639704374       -3.1187086316
 C        11.7748131451       -7.4469720221       -4.2314889935
 O        12.7549009743       -6.7178963858       -4.2671542726
 C        11.5174528969       -8.4556524168       -5.5026189792
 C        11.1204043199       -7.1951839315       -6.4208604509
 O         9.9178055246       -6.8591357474       -6.3470703863
 C        12.0589610621       -6.5390345383       -7.3991829792
 C        11.4809552162       -6.7042633790       -8.7665274306
 C        10.7340728418       -5.4939292242       -9.3407378996
 O        10.5315931978       -4.5235304688       -8.6519516672
 C        10.2012188959       -5.5648534449      -10.7807751846
 C         8.7536262657       -6.1471999401      -10.6966075842
 O         8.3739829537       -7.1289978611      -11.2702698827
 C         7.6976672163       -5.2115848597      -10.0724234217
 C         6.6889346624       -5.7738847422       -9.0644871175
 C         6.5437185346       -4.6963891572       -7.9514288664
 O         7.5130309330       -4.1250303480       -7.5387324374
 C         5.1266327493       -4.4375711710       -7.2962762271
 C         3.8953953809       -4.2461473719       -8.3604548679
 O         4.0440871947       -4.5636233435       -9.5361136123
 C         2.3872440158       -3.7866780679       -7.7397775079
 C         1.7800976565       -2.4305730242       -8.2651481185
 C         0.2348315270       -2.6378822220       -7.9966641969
 O        -0.2428422350       -2.3888947061       -6.9227592547
 C        -0.6013407163       -3.2815820655       -9.1744608413
 C         0.2010854939       -3.5076681529      -10.4836923539
 O         0.3302054964       -2.5960107129      -11.3181877194
 C         0.9228915663       -4.8897177812      -10.8762205014
 C         0.4441916807       -5.4374719581      -12.2959535689
 C        -1.0827784466       -5.8083023903      -12.2890637390
 O        -1.5922789784       -6.1876784299      -11.2619901276
 C        -1.8946090452       -5.7668789849      -13.6994167366
 C        -3.4430124766       -5.9187777330      -13.3926373294
 O        -4.0650052098       -6.8245299870      -13.9011058667
 C        -4.2572528955       -5.1854537893      -12.3149134378
 C        -5.7646732390       -5.2820969202      -12.6094150468
 C        -6.3818777985       -4.0834264899      -13.3370319602
 O        -5.8374054305       -3.1068442671      -13.7631141156
 C        -7.9363795787       -4.1389198668      -13.5716198022
 C        -8.7013264005       -3.7115753150      -12.1859395433
 O        -8.1146946219       -3.9714711657      -11.1326697161
 C       -10.1626785466       -3.2408734503      -12.2274222209
 C       -10.8432281924       -2.9828638836      -10.8745942697
 C       -11.5565233310       -1.5750532126      -10.7190005803
 O       -11.2349166766       -0.6154966728      -11.4086801358
 C       -12.5594673247       -1.2922479939       -9.6476755364
 C       -11.9880073071       -0.0015294526       -8.8586477240
 O       -12.5269528309        1.0498203354       -9.1564181726
 C       -10.6865340070       -0.1164053642       -7.9199880515
 C        -9.8372989647        1.0852579675       -7.8149866551
 C        -8.6286333363        0.9020174280       -8.9089037744
 O        -8.2849807552       -0.1999503074       -9.2771687514
 C        -7.8627024672        2.2050563478       -9.3043637921
 C        -8.7241990345        2.9982598216      -10.3642634995
 O        -9.9339382340        2.8352028704      -10.3737858235
 C        -7.9548603547        4.1278913258      -11.1660815060
 C        -8.4226599900        4.4059812428      -12.6236404609
 C        -9.4724790113        5.4838639061      -12.8527156500
 O        -9.8474717465        6.2906589116      -12.0967454202
 C       -10.4629069809        5.2291054350      -14.3183892636
 C       -11.4856023617        4.2836237754      -13.5020443851
 O       -11.2214220862        3.1044152110      -13.2893395854
 C       -12.7526988180        4.9667880168      -12.9325785111
 C       -13.6442448974        4.0679109075      -11.9370861349
 C       -14.5040969688        2.9662482862      -12.6226703118
 O       -14.1722567657        1.7946415493      -12.6401766694
 C       -15.9757539701        3.2954844920      -13.1765181573
 C       -16.7560492119        4.4933730620      -12.3575088932
 O       -16.2835961838        4.8282702197      -11.2710164709
 C       -18.1223809284        4.8805115813      -12.8773443692
 C       -18.6476105157        6.2013174790      -12.2287967955
 C       -19.6706773730        6.9634779560      -13.0589284021
 O       -19.9046791348        6.7667299134      -14.2562466345
 C       -20.5210230745        8.0254249772      -12.3198042377
 C       -19.4931826688        9.2026134277      -11.8667235316
 O       -18.3313139177        8.8521574510      -11.8432232017
 C       -20.1541922837       10.4454338756      -11.4126141148
 C       -21.5143938803        8.6507648218      -13.2580358655
 C       -21.4194395341        7.4554076544      -11.1369590621
 C       -15.8770553971        3.7304763704      -14.6651276671
 C       -16.9504478138        2.0019345781      -13.1487825488
 C       -11.1168323988        6.5662079573      -14.6830788062
 C        -9.8036810127        4.5115672061      -15.5433514363
 C        -7.7369822215        3.2177103443       -8.1414067734
 C        -6.4547820529        1.8185386470       -9.8796079549
 C       -13.8557745676       -0.8789299409      -10.3675645186
 C       -12.8209851441       -2.4171684622       -8.6780727770
 C        -8.2261043544       -3.2122298109      -14.7103950548
 C        -8.3550208383       -5.5946738349      -13.8590923776
 C        -1.6283423018       -4.3575653651      -14.2683088637
 C        -1.3160656295       -6.8844959039      -14.5198365467
 C        -1.2552353302       -4.5751081447       -8.5094135090
 C        -1.6405881174       -2.2081146873       -9.5009948128
 C         4.7937946052       -5.8300742043       -6.5719342879
 C         5.1841484427       -3.2893351224       -6.2969087613
 C         9.9992833281       -4.0614785029      -11.2728257059
 C        11.0804873694       -6.3524946039      -11.7177602703
 C        12.8761090712       -9.0919190797       -5.7892561026
 C        10.3193985072       -9.4612438693       -5.4722963855
 C        11.0962844656       -2.8823482848       -1.8725916083
 C         9.7676247642       -2.2576288551       -4.0975206024
 H        13.5977035398       -4.0819563907       -2.9228231601
 H        13.6249313792       -2.1850069457       -3.3087405744
 H        14.2377956801       -3.3734629775       -4.5086096489
 H        10.1307030038       -5.8276996220       -1.6703503070
 H        11.7778208316       -5.3994336113       -2.3906521989
 H         9.6504436726       -7.6173640131       -3.2814783634
 H        11.0036717002       -7.9640133457       -2.3736073158
 H        13.0755288471       -6.9604155532       -7.4026470412
 H        12.2923050761       -5.5070151727       -7.0389491433
 H        10.8903959007       -7.5848148925       -8.7924653317
 H        12.2516213554       -6.9139600026       -9.4849820277
 H         7.2221626897       -4.7927207030      -11.0020207700
 H         8.1417139261       -4.4502495510       -9.5045860089
 H         7.2518684912       -6.5223357572       -8.5936946469
 H         5.7330261605       -6.1604031189       -9.4165316042
 H         2.2126154064       -3.9675361116       -6.6617958305
 H         1.8106103127       -4.6866021409       -8.0518493924
 H         1.9067386821       -2.2957434488       -9.3567027160
 H         2.2661837524       -1.6374519737       -7.7136961075
 H         0.6758266968       -5.6957654988      -10.1655542129
 H         2.0179932298       -4.7645807742      -10.8380507089
 H         1.0523619632       -6.4273350521      -12.4509608115
 H         0.8610796718       -4.7844503668      -13.1045099911
 H        -3.9678607094       -4.1589383433      -12.1861102215
 H        -4.1229202299       -5.6195356772      -11.4046096653
 H        -6.1953585863       -5.1657902039      -11.5843954062
 H        -6.0562933296       -6.3051545901      -12.9845207981
 H       -10.8862906419       -3.9015088568      -12.7667845162
 H       -10.1854924879       -2.2381518636      -12.6923186004
 H       -10.1343562045       -3.1762210086      -10.0506214676
 H       -11.6600800015       -3.6917681717      -10.7466756569
 H       -10.1227938491       -0.9260603502       -8.2569935885
 H       -11.0691370386       -0.4925036290       -6.9317012580
 H        -9.3430445299        1.0060193838       -6.8504546022
 H       -10.4246206052        1.9548290460       -7.9992936694
 H        -6.9303736921        3.8377632043      -11.0857708891
 H        -8.0940544232        5.1135460942      -10.6339070234
 H        -8.8510386601        3.4866256415      -13.1880719798
 H        -7.4539769621        4.7398132324      -13.2152959807
 H       -13.2914875517        5.4623878505      -13.7092140696
 H       -12.3719311922        5.7524382452      -12.2558678384
 H       -14.4097310975        4.5786962606      -11.3870330649
 H       -13.0078483767        3.6663855968      -11.0628914899
 H       -18.8013876446        4.0442670118      -12.6908819841
 H       -17.9380699656        5.0461234837      -13.9379623587
 H       -17.7242174535        6.8077110887      -12.1827586630
 H       -18.9786644098        6.0457472484      -11.1948028091
 H       -20.8104670363       10.3345016850      -10.5239505682
 H       -20.7028068166       10.9896300072      -12.1557186636
 H       -19.4189450261       11.0728479927      -10.8910711950
 H       -20.8962044458        9.4465565982      -13.7480942346
 H       -22.5735660190        8.8203771710      -12.9578636199
 H       -21.7526419348        8.1028118883      -14.1029450392
 H       -21.0406657825        7.6558342273      -10.1371101340
 H       -21.8212670912        6.4596105916      -11.1776026416
 H       -22.2672579545        7.9858591744      -11.1354573473
 H       -16.8349440183        4.1973061968      -14.9585868873
 H       -15.8682161473        2.8523188292      -15.3345425133
 H       -15.1526901023        4.5442568355      -14.8568771907
 H       -16.5024284384        1.0772491078      -13.5159453887
 H       -17.8779200922        2.1734055229      -13.6860505256
 H       -17.1290883988        1.7399801618      -12.1098456580
 H       -10.3673527827        6.9487070244      -15.4308850226
 H       -11.1970688590        7.1137764121      -13.7501622497
 H       -11.9890484324        6.5506110534      -15.2929601475
 H        -9.2599859678        3.6544431006      -15.1913696521
 H        -9.0760079356        5.2247088317      -16.0379783678
 H       -10.5170707423        4.2447315729      -16.3149497798
 H        -6.8591256893        2.9673811962       -7.5328462794
 H        -8.6024698477        3.0931965152       -7.6569899788
 H        -7.6806675905        4.2217792076       -8.4490764401
 H        -6.1884672288        0.8305387538       -9.4252130709
 H        -5.8619549522        2.6950804799       -9.5022884299
 H        -6.4851410342        1.7541185114      -10.9264861128
 H       -13.6168496071       -0.1044193007      -11.1540095774
 H       -14.3840995567       -0.3751002413       -9.6385390836
 H       -14.4594233547       -1.7859075729      -10.6408962416
 H       -13.0720889916       -3.3842077816       -9.1394956740
 H       -13.7704101061       -2.1983849988       -8.1377077963
 H       -11.9673239293       -2.6766192577       -8.0285631966
 H        -9.3683787467       -3.2504058881      -14.8612299272
 H        -7.8138924578       -3.4809480727      -15.6690382264
 H        -8.1066671368       -2.1758404187      -14.4257157515
 H        -9.4730025184       -5.7542362897      -13.9882081313
 H        -8.1611293178       -6.1909619624      -13.0098346195
 H        -7.7248616391       -5.9005385516      -14.7175174482
 H        -2.0951579265       -4.2749890301      -15.2326980452
 H        -0.5385695545       -4.1651741478      -14.5131865134
 H        -2.1332975951       -3.5792720268      -13.6274067433
 H        -0.6866287791       -6.4977134264      -15.2736525462
 H        -2.1609980859       -7.5823195244      -14.9831160465
 H        -0.5862653373       -7.4001643538      -13.8434227298
 H        -0.7261372934       -5.4272736929       -8.8662653134
 H        -2.3005730661       -4.7444323963       -8.7632157378
 H        -1.0754910982       -4.5492525583       -7.4345228013
 H        -1.3222687711       -1.1645245093       -9.5686435487
 H        -2.5668838133       -2.3101633127       -8.8306368844
 H        -1.9910120559       -2.3334894093      -10.5730063104
 H         5.2217773576       -6.7009967316       -7.0110154836
 H         3.7098140168       -5.9657658721       -6.5188472983
 H         5.0991244190       -5.9048802242       -5.4655757549
 H         5.0664525007       -2.2508352188       -6.5431576896
 H         6.1895505916       -3.3761618570       -5.7252088502
 H         4.4511762859       -3.3327215846       -5.4860689179
 H         9.3530562631       -4.1864866283      -12.1557600632
 H        10.8735162338       -3.6723379120      -11.6926987037
 H         9.7174683782       -3.3095746563      -10.5244768063
 H        11.2944659307       -7.3386415073      -11.2626123725
 H        11.8904326522       -5.7065045115      -12.0623958299
 H        10.5024671008       -6.5624372240      -12.6840951349
 H        12.9179894040      -10.1289553235       -5.8346297851
 H        13.5220646291       -8.6412185189       -5.0676428767
 H        13.2702711805       -8.7546744291       -6.7525248804
 H        10.5706266538      -10.5057945931       -5.2400895815
 H         9.7644877391       -9.5135061046       -6.4015283598
 H         9.6154940746       -9.1207123284       -4.6816368433
 H        11.4089647571       -1.8579364210       -1.8672029175
 H        11.9290128630       -3.4340807017       -1.5113513492
 H        10.1519454060       -3.1658914960       -1.3985806468
 H         8.8868562259       -2.3433727455       -3.4426945581
 H         9.4050477332       -2.5683359344       -5.0585848075
 H        10.1056633196       -1.2666754526       -4.1187367182
 Na        9.8673596631       -4.5776878871       -6.4380852622
 Na      -11.9083035290        1.5692256905      -11.3067046682
