232

 C        13.5818104792       -3.3308897423       -3.7593145438
 C        12.1209061161       -3.5513041967       -4.2676320715
 O        11.9391352810       -3.8996286711       -5.4367129309
 C        10.7032496732       -3.3517410362       -3.3720138975
 C        10.0936827524       -4.7280773487       -3.4389001331
 O         9.1689546782       -5.0966401806       -4.1689191067
 C        10.7748517258       -5.7765793047       -2.5137623554
 C        10.6776476997       -7.2205981849       -3.0988518259
 C        11.6908543082       -7.3508297296       -4.1860597361
 O        12.7400876672       -6.7382254699       -4.2083852678
 C        11.5735334242       -8.3035307928       -5.5082865054
 C        11.0749379506       -7.2107979603       -6.4222374234
 O         9.9270143124       -6.8097323799       -6.1922150991
 C        11.9609211394       -6.4469657969       -7.3408020761
 C        11.5407006646       -6.5511715747       -8.8251632859
 C        10.6746479894       -5.3534000993       -9.3413620101
 O        10.3312971298       -4.3906357305       -8.6403935101
 C        10.1796624551       -5.5054387275      -10.9021654280
 C         8.6310695872       -6.1365148196      -10.7883090896
 O         8.3886783626       -7.2090056095      -11.3082320729
 C         7.8052584195       -5.1901809445       -9.9553187458
 C         6.7776671676       -5.8292481877       -8.9906503243
 C         6.4845670695       -4.7245372560       -7.8774590928
 O         7.4379450851       -4.1445832547       -7.4487034929
 C         5.0384863392       -4.4856489998       -7.3411146459
 C         3.9231505978       -4.2522442040       -8.4001782282
 O         3.9229105400       -4.7193125140       -9.4958969613
 C         2.5389142508       -3.7855515901       -7.8472272781
 C         1.8825927420       -2.4956153612       -8.2584390377
 C         0.3711906608       -2.6584715915       -8.0147230762
 O        -0.1109317698       -2.3711359044       -6.9636907253
 C        -0.5804756622       -3.3116677617       -9.1719292460
 C         0.2742467553       -3.6163817624      -10.5555481538
 O         0.4455534237       -2.6327676173      -11.1990892126
 C         0.8782761720       -4.9854713871      -10.9252208391
 C         0.4382125422       -5.5781000876      -12.2658035668
 C        -1.0659563490       -5.7237466136      -12.2858268254
 O        -1.6756338412       -6.0085719666      -11.2662153716
 C        -1.8904301402       -5.6841237735      -13.5916982998
 C        -3.5226301018       -6.0492032579      -13.2749065259
 O        -3.9699617192       -7.0569496719      -13.8266480051
 C        -4.2571069847       -5.0488134817      -12.3333286635
 C        -5.8412168145       -5.2359268964      -12.5636226020
 C        -6.4387243026       -4.0643318564      -13.2777983281
 O        -5.6770066750       -3.1673341056      -13.6657530792
 C        -8.0780242473       -4.1009229272      -13.5941966632
 C        -8.6776295794       -3.7798222720      -12.2207861730
 O        -8.1910817901       -4.0356589107      -11.1750120475
 C       -10.1377479551       -3.2029559214      -12.3290791165
 C       -10.8185792219       -2.8682870793      -10.9240184369
 C       -11.4288339935       -1.4783369103      -10.7123575120
 O       -11.1205985547       -0.6111742452      -11.4814911905
 C       -12.5716490475       -1.2528319736       -9.5418430698
 C       -11.9429020344       -0.0668748307       -8.8701297934
 O       -12.2640043361        1.1087961821       -9.1247324100
 C       -10.7215145387       -0.2055362188       -7.9681435085
 C        -9.7576304388        1.0547434822       -8.1009167154
 C        -8.5283603171        0.8663667411       -8.9483042811
 O        -8.1117245705       -0.2116353216       -9.2175080286
 C        -7.8053566286        2.1754216837       -9.3977528032
 C        -8.8132823733        2.8975524761      -10.4674194887
 O        -9.9658622592        2.6555772663      -10.4828277306
 C        -8.0895088719        4.0891868650      -11.2503834488
 C        -8.4514649003        4.3499889969      -12.7518987894
 C        -9.5632425048        5.3307860467      -12.9916785612
 O        -9.8119150114        6.1854981157      -12.2065773860
 C       -10.4501364765        5.2396765850      -14.2219082385
 C       -11.5236719709        4.2998023377      -13.5185619413
 O       -11.2222490953        3.1398967263      -13.2998449601
 C       -12.7728303930        4.9838908633      -12.8431942882
 C       -13.5343038990        3.9662454496      -11.9700946689
 C       -14.5566320500        2.9153179251      -12.5005123468
 O       -14.1368497530        1.8039838703      -12.5651476532
 C       -16.0031618762        3.3381075856      -12.9644514961
 C       -16.7677550549        4.4739205700      -12.1177567704
 O       -16.4163148892        4.9589313123      -11.0968043437
 C       -18.1219847444        4.9732486069      -12.7838743126
 C       -18.7090925510        6.2184531770      -12.0665275052
 C       -19.7717016594        6.7673899263      -12.9994603914
 O       -19.7430589344        6.6243345670      -14.1894609993
 C       -20.6466620721        8.0522157148      -12.3960306118
 C       -19.5992084449        9.1117452802      -11.7949220559
 O       -18.3724397305        9.0114630804      -11.8562152632
 C       -20.1145354084       10.4092910359      -11.4143707110
 C       -21.5458332234        8.7442980015      -13.4137796661
 C       -21.4665709955        7.4471396566      -11.1257136540
 C       -15.7341456395        3.8572504166      -14.4130151722
 C       -16.9025745124        2.0672500663      -13.0339279511
 C       -11.0631704159        6.6849144282      -14.5316602431
 C        -9.9120523997        4.5866199602      -15.4889277175
 C        -7.7429102051        3.2024212123       -8.2128626070
 C        -6.3633789826        1.8556108737       -9.9747011277
 C       -13.9048039197       -0.8438858323      -10.2582152006
 C       -12.8824065231       -2.5082982433       -8.6419119121
 C        -8.4142480165       -3.1329482932      -14.6817003882
 C        -8.4902101889       -5.6270227554      -13.8797115090
 C        -1.7362900651       -4.3054236840      -14.3972662688
 C        -1.3279601667       -6.8504010071      -14.4742885921
 C        -1.1763204347       -4.6106936965       -8.5606505918
 C        -1.6506812508       -2.2444427983       -9.6122895191
 C         4.5990306299       -5.7639487382       -6.6260558424
 C         5.1895050036       -3.2854865205       -6.3864674269
 C         9.9707335837       -4.1033599555      -11.6331119113
 C        11.2728765834       -6.1942807057      -11.7098707992
 C        12.9498846256       -9.0267043058       -5.8971869615
 C        10.5253401438       -9.3964744882       -5.4200776309
 C        10.9511710576       -2.9985642157       -1.8647111228
 C         9.8562214512       -2.2862839813       -4.0415866185
 H        13.9773048777       -4.1481135756       -3.0316587846
 H        13.5054270699       -2.3359290936       -3.3555117163
 H        14.2641844780       -3.2054798102       -4.6189314516
 H        10.0527182530       -5.7942036712       -1.7346670215
 H        11.7539675148       -5.4396877806       -2.2126885763
 H         9.6892147011       -7.4663408341       -3.3499572413
 H        10.9934871606       -8.0063278505       -2.4165278509
 H        12.9981121620       -6.6194608369       -7.1438867772
 H        11.8940063269       -5.3629075111       -6.9899095770
 H        10.9434369839       -7.4922790695       -8.9605398661
 H        12.3505593826       -6.5922183125       -9.5440553985
 H         7.3058866948       -4.5105782515      -10.6786755471
 H         8.4262738805       -4.5728918666       -9.3516659438
 H         7.1213439882       -6.7847746591       -8.6553424758
 H         5.8834185402       -5.9287878399       -9.5366186850
 H         2.4278703841       -3.8672903778       -6.7646071323
 H         2.0251429265       -4.7399563846       -7.9949740741
 H         1.9557897534       -2.1825371443       -9.2723433056
 H         2.4117371230       -1.8218672594       -7.5977689778
 H         0.7418102758       -5.7408596315      -10.1235839509
 H         2.0024399631       -4.7573565557      -11.0086035178
 H         0.9956091622       -6.5610253346      -12.3627015527
 H         0.8636738333       -4.9906639011      -13.0227677970
 H        -3.8520221847       -4.0909336980      -12.5453445022
 H        -4.0442868776       -5.2335794656      -11.2845864948
 H        -6.3458006602       -5.6173406461      -11.6198525922
 H        -5.9113593204       -6.0314897523      -13.3070122976
 H       -10.8274838682       -3.8436694858      -12.7713636874
 H       -10.0598830033       -2.2168309246      -12.8837736542
 H        -9.9644696796       -3.0231331774      -10.2697116347
 H       -11.5883798376       -3.6146620031      -10.6454120864
 H       -10.2466888653       -1.1831732551       -8.1265845646
 H       -11.2009100311       -0.3364742918       -6.9574697772
 H        -9.3611303715        1.3026192840       -7.1022023785
 H       -10.3273129174        1.8069153212       -8.6011173093
 H        -7.0695705809        3.9587045620      -11.1074768524
 H        -8.4518463220        5.0411392991      -10.7547943553
 H        -8.6034206610        3.4175187828      -13.3435492757
 H        -7.5641670983        4.9016530270      -13.2163474468
 H       -13.4126502367        5.4512766159      -13.5554356884
 H       -12.5054564038        5.7695375945      -12.1248862653
 H       -14.2219087062        4.4550880520      -11.2695116524
 H       -12.8977209364        3.5177269085      -11.2754138846
 H       -18.9088368954        4.2485182894      -12.6413524199
 H       -17.9478865890        5.1166720575      -13.8313355361
 H       -17.9150210165        7.0191883599      -11.9128368151
 H       -19.0907218023        5.8725495864      -11.0784037515
 H       -20.7213373425       10.6054325641      -10.5094999373
 H       -20.6785655610       10.7771266610      -12.3217556437
 H       -19.2979097233       11.0542956628      -11.1607632687
 H       -20.9443796902        9.3718708833      -14.0700926868
 H       -22.5076466197        9.1171697876      -13.0288397916
 H       -22.0160971573        8.0639082343      -14.0969712185
 H       -20.9464592830        7.5574942287      -10.2171472389
 H       -21.6172061578        6.3951088590      -11.2605383518
 H       -22.5356441177        7.7974222544      -10.8521311351
 H       -16.6367285963        3.8612756098      -15.0823501573
 H       -15.0801049823        3.1334864479      -14.9148558563
 H       -15.4111041522        4.9003281685      -14.3457100862
 H       -16.8540849674        1.5669560539      -13.9983353280
 H       -17.9038765830        2.2719282062      -12.8174668030
 H       -16.4565461716        1.3069031408      -12.3820072798
 H       -10.4578281988        7.1094273598      -15.3531156270
 H       -11.1436159570        7.2029344618      -13.5804563011
 H       -12.0337033573        6.6008733886      -15.0298703509
 H        -9.5836671938        3.5786647275      -15.2613602680
 H        -9.1314152437        5.1028845056      -15.9605761838
 H       -10.7685392755        4.5953182307      -16.1899082243
 H        -6.9039314926        2.8605065433       -7.6014065591
 H        -8.6745819188        3.0954457696       -7.6825882541
 H        -7.6471814535        4.2757420921       -8.4804680331
 H        -6.2204841030        0.8422544718       -9.5206626295
 H        -5.6730067133        2.6126759695       -9.6248100666
 H        -6.4223801536        1.7020030572      -11.0257687644
 H       -13.6329478980        0.0017245975      -10.9055643994
 H       -14.6066491674       -0.4387255181       -9.4567759679
 H       -14.3638512392       -1.7015187190      -10.7044282375
 H       -13.2119716922       -3.3780980346       -9.3180241654
 H       -13.7609831297       -2.3812932056       -8.0652079031
 H       -12.0401756429       -2.9588711278       -8.0420169581
 H        -9.5117637246       -2.9297564779      -14.8224389724
 H        -8.0952427225       -3.5181778997      -15.6598410742
 H        -8.0557144460       -2.1691212784      -14.4384019212
 H        -9.4022280727       -5.6509124500      -14.3627052535
 H        -8.6459735478       -6.1939505178      -12.9611589472
 H        -7.7199024060       -6.0090870003      -14.5147674054
 H        -2.2571428662       -4.5414720379      -15.3626890801
 H        -0.7499504956       -4.1067327133      -14.7722555319
 H        -2.2265907709       -3.4055527026      -13.9711452173
 H        -0.7003796552       -6.2726170369      -15.2459580356
 H        -2.1205318476       -7.2768480232      -14.9588178746
 H        -0.6628029176       -7.5567026214      -13.9904061882
 H        -0.5840515293       -5.5439216045       -8.9000035691
 H        -2.1429959182       -4.7007320208       -9.1047915099
 H        -1.3002196701       -4.6155606797       -7.5007423152
 H        -1.2566332400       -1.2322302060       -9.8356952298
 H        -2.3707224753       -2.2043413920       -8.7142256592
 H        -2.2544030960       -2.4554513062      -10.5256047920
 H         4.8611472471       -6.6150371867       -7.2621463707
 H         3.5226728605       -5.7939140008       -6.4205120607
 H         5.0985810138       -6.0156232321       -5.7086496882
 H         4.9708847775       -2.2791488230       -6.7115995493
 H         6.1524087808       -3.2465558817       -5.9365849624
 H         4.5011819653       -3.2835259020       -5.5436233520
 H         9.2841263502       -4.2721199610      -12.3903257956
 H        10.7960046890       -3.8091539012      -12.2488929184
 H         9.7851018745       -3.2529013488      -10.9844764398
 H        11.2631344845       -7.2312052520      -11.3919681945
 H        12.2360781457       -5.6221677427      -11.7659212122
 H        10.9172510489       -6.2181621468      -12.7570559812
 H        12.8065855237      -10.1364151165       -5.8824566422
 H        13.7339258876       -8.7076245072       -5.2307991118
 H        13.2477201852       -8.8920933072       -6.8935687477
 H        10.8292949363      -10.2439462112       -4.7947364069
 H        10.3563500971       -9.7747010737       -6.4506710925
 H         9.5656528697       -9.0683854607       -5.0828808761
 H        10.8693081934       -1.9549810819       -1.6451797025
 H        11.9498380492       -3.2515825160       -1.5935991061
 H        10.1826712021       -3.6765045510       -1.4832743598
 H         8.9429325393       -2.1901811338       -3.5252412209
 H         9.5966222708       -2.4995989204       -5.0670789540
 H        10.4183380812       -1.3363624363       -3.9698791435
 Na        9.7693393187       -4.5101387470       -6.3945636104
 Na      -11.8508865674        1.6116187874      -11.4854881212
