232

 C        13.1339682930       -3.7227616608       -4.0932693694
 C        11.6835334701       -3.4008751378       -4.4118318296
 O        11.3256283138       -3.4618797644       -5.5614889260
 C        10.7156014397       -3.3882745033       -3.1967770483
 C        10.0313149852       -4.9211936651       -3.3440839314
 O         9.2880420652       -4.9836650471       -4.2763510027
 C        10.4540746569       -6.1295857558       -2.3931696123
 C        10.6464419883       -7.4644143826       -3.2389705576
 C        11.8455722218       -7.2375334424       -4.1548872006
 O        12.8935121131       -6.7087433169       -3.7636588049
 C        11.8184431940       -7.8651552293       -5.6339998247
 C        11.1731733745       -6.8909535231       -6.6307200790
 O         9.9777135503       -6.8208459461       -6.7177254406
 C        12.0730042547       -5.9688621831       -7.4435241052
 C        11.6232596294       -6.2144854428       -8.9467755999
 C        10.6277609256       -5.1570462136       -9.4361496177
 O        10.2217240972       -4.1979946211       -8.8122844567
 C        10.0687509794       -5.2763630513      -10.8598495599
 C         8.5934710017       -5.8204439411      -10.6455750489
 O         8.4401427996       -7.0303978272      -10.6523921150
 C         7.3965672679       -4.9931915362      -10.0389858000
 C         6.7613598623       -5.8692855874       -8.8583958545
 C         6.5154396768       -4.9512424495       -7.7366394433
 O         7.4044676659       -4.2821931484       -7.1626341430
 C         5.0443127588       -4.8151884135       -7.2439658987
 C         4.0981683137       -4.7051289493       -8.4768202328
 O         4.4941148565       -4.6713246703       -9.6348137737
 C         2.6289376842       -4.5818574726       -8.2191651017
 C         2.2006424340       -3.0206050293       -8.2833594703
 C         0.6881866455       -2.6135323397       -8.2297933225
 O         0.3449504689       -1.6803088741       -7.5086151274
 C        -0.2428503092       -3.3904322544       -9.1597242522
 C         0.5220093094       -3.7595454512      -10.5183325512
 O         0.7975392582       -2.9087838069      -11.3675292284
 C         0.8250188182       -5.2922024053      -10.8604869496
 C         0.1645896661       -5.6968592887      -12.2677066213
 C        -1.3228963601       -5.6160450225      -12.3207306671
 O        -1.9357305166       -5.2840928674      -11.3229630643
 C        -2.1264553679       -5.8161780301      -13.6588109137
 C        -3.5528524484       -6.2405245844      -13.1953078538
 O        -3.9430402732       -7.3685186176      -13.3995423326
 C        -4.4177168840       -5.1780202529      -12.4281914867
 C        -5.9076000913       -5.5064487093      -12.8193353838
 C        -6.4988587201       -4.1443655993      -13.4346885021
 O        -5.9123967232       -3.1140174936      -13.5243151159
 C        -8.0732841450       -4.2746741880      -13.7773731917
 C        -8.8421235068       -3.9374073093      -12.4069614333
 O        -8.5278076020       -4.4825452431      -11.3364174548
 C        -9.9926557062       -2.9241158925      -12.3930647010
 C       -10.8569472060       -2.8816382045      -11.0971470187
 C       -11.5559348410       -1.5570430132      -11.0685898632
 O       -11.5567429158       -0.8337317551      -12.0648348477
 C       -12.3092038341       -1.2091233982       -9.7387341019
 C       -11.4603961290        0.1776084947       -9.1560907905
 O       -11.7031180737        1.3085446802       -9.4759912009
 C       -10.4536236729       -0.0583425805       -8.0055597563
 C        -9.5056020639        1.1172697450       -8.0007844501
 C        -8.3271485598        0.8063673244       -8.9932490156
 O        -8.0818939757       -0.3540010381       -9.2712106775
 C        -7.5168297796        2.0859998235       -9.6627508268
 C        -8.4635587352        2.5072431252      -10.8348997051
 O        -9.4439282009        1.7935878876      -11.2261007261
 C        -8.1160157303        3.7820101902      -11.5483687379
 C        -8.7805862337        4.0552010937      -12.9395800041
 C        -9.6270632415        5.3884389754      -13.0526424602
 O        -9.4662847312        6.3383063313      -12.3098221778
 C       -10.8844980076        5.3507369805      -14.1345316464
 C       -12.0239007702        4.6270587482      -13.3047164400
 O       -12.1941425826        3.4623411195      -13.6163378034
 C       -12.7796698038        5.3436145069      -12.1953160961
 C       -13.6346114838        4.4833422405      -11.2222667594
 C       -14.4558525441        3.2823794083      -11.8157156000
 O       -14.1460523464        2.1003467122      -11.5818911679
 C       -15.8535405332        3.5333948372      -12.4689091759
 C       -16.7661160554        4.4361458894      -11.6808224544
 O       -16.4193313636        4.8336415597      -10.5706019137
 C       -18.1492763137        4.7590114419      -12.1935408341
 C       -18.7652898125        6.0097522570      -11.5341779960
 C       -19.6593577917        6.8538859104      -12.5897340183
 O       -19.6808576283        6.3563374223      -13.7127554766
 C       -20.7122356696        8.0540782257      -12.3408905743
 C       -19.7816199722        9.2109608508      -11.8596123952
 O       -18.5905544771        9.0306464088      -11.9505082560
 C       -20.4901101059       10.4917351925      -11.5305305932
 C       -21.3671408728        8.4128458501      -13.7070392505
 C       -21.6906801430        7.5528119732      -11.3146743318
 C       -15.5994157689        4.1366262660      -13.9095349596
 C       -16.6646744960        2.1326364601      -12.5583981414
 C       -11.2443329574        6.7800114748      -14.4981305301
 C       -10.3345186512        4.6341550245      -15.4397371791
 C        -7.2440156313        3.2344558483       -8.7337866723
 C        -6.0589479761        1.4418805343      -10.0564250775
 C       -13.7621461909       -0.9034826309      -10.0904726026
 C       -12.2121938283       -2.2316242005       -8.6322411991
 C        -8.5625626708       -3.2155381776      -14.8995346421
 C        -8.6560957666       -5.6361137688      -14.2179836342
 C        -2.1367226838       -4.4403252841      -14.3443166062
 C        -1.6676447481       -6.8962687868      -14.6737998940
 C        -1.0413412752       -4.4608937499       -8.3332657335
 C        -1.4363286569       -2.4971374702       -9.6956494891
 C         4.7635481562       -6.0697329569       -6.3474406875
 C         4.8881481556       -3.5043072044       -6.4356327962
 C        10.1068283884       -3.8591434387      -11.4597648397
 C        10.8944917327       -6.2532105713      -11.7681223498
 C        13.2410720753       -8.2181830619       -5.9625436818
 C        10.8235262408       -9.0785493969       -5.7308930484
 C        11.3736364517       -3.1044367010       -1.8699712166
 C         9.5654538710       -2.3549155251       -3.3463688366
 H        13.1499103332       -4.5548403960       -3.4309279827
 H        13.5506332723       -2.7670078393       -3.6152358443
 H        13.7105869720       -4.0015925502       -5.0086085245
 H         9.6579260106       -6.2682771091       -1.6299799506
 H        11.3143381068       -5.8580815141       -1.8939995867
 H         9.7704179537       -7.6785074839       -3.8077660448
 H        10.9087254899       -8.2303424902       -2.5167362611
 H        13.1677318103       -6.2044119359       -7.3808802594
 H        11.9070528946       -4.9565712655       -7.1413751548
 H        11.0485972722       -7.1577235197       -9.0141832069
 H        12.5057743885       -6.1374519043       -9.5946734745
 H         6.6947188166       -4.6558186277      -10.7342378382
 H         7.7504631307       -4.0355928365       -9.5682997521
 H         7.3867366440       -6.6617040998       -8.5473341645
 H         5.8428703711       -6.2798145701       -9.2019908262
 H         2.4522835518       -4.8643324785       -7.1388783671
 H         2.0255190657       -5.2368120936       -8.8454269394
 H         2.6268359013       -2.5849432207       -9.1832389523
 H         2.5454133621       -2.3667267220       -7.5054294505
 H         0.3078887379       -5.9201435487      -10.0981395833
 H         1.9322675006       -5.3061339633      -10.9044537549
 H         0.5519564780       -6.5882037505      -12.5460829900
 H         0.5870234043       -4.9701900552      -12.9812085286
 H        -4.3697741659       -4.1312979101      -12.6768019760
 H        -4.0799893467       -5.2541232755      -11.3688331923
 H        -6.5780117556       -5.7631121520      -11.9660685694
 H        -5.8697532725       -6.3309756407      -13.5505542989
 H       -10.6822317266       -3.1321794202      -13.2227420938
 H        -9.6058656701       -1.8882362608      -12.4827589563
 H       -10.1987237913       -2.7988755414      -10.2591164417
 H       -11.4969032395       -3.7711861612      -11.0986286976
 H        -9.9523105675       -1.0877015071       -8.0409625675
 H       -11.0339320248       -0.0866949443       -7.1156191049
 H        -9.0320250553        1.1464465631       -7.0292931375
 H       -10.0498704842        2.0470017372       -8.2511279091
 H        -6.9948707304        3.5680371060      -11.8318174680
 H        -8.2107586470        4.6156880860      -10.8717596884
 H        -9.4938545145        3.2023525570      -13.0915670556
 H        -7.9540039713        4.0059698250      -13.6257258483
 H       -13.4231119266        6.1305806277      -12.6160966686
 H       -12.1304120982        5.8693447880      -11.5349728170
 H       -14.3514771806        5.1039180727      -10.7284976765
 H       -13.0671677252        3.9951665249      -10.4872464361
 H       -18.7584087671        3.8964572067      -11.9823675031
 H       -18.1821970880        4.7540508106      -13.2599723471
 H       -18.0246489817        6.6617139206      -11.0249848032
 H       -19.5528291431        5.6216787692      -10.8090224971
 H       -20.8029094004       10.4988004168      -10.4781668422
 H       -21.4555725332       10.7289561196      -12.0123967928
 H       -19.7711769273       11.3729623167      -11.6929833057
 H       -20.5703096069        8.8524005151      -14.2961466472
 H       -21.9536503821        9.3060377749      -13.6048003259
 H       -21.9167384637        7.6859141444      -14.3844233528
 H       -21.1703044893        7.6432099083      -10.3251296337
 H       -21.9626913469        6.4957763600      -11.3513496078
 H       -22.4993082393        8.2015275737      -11.2197652977
 H       -16.5446230319        4.4502625350      -14.3768830439
 H       -15.1474522413        3.2713317799      -14.4312616025
 H       -14.7631296595        4.8775307900      -13.9305168332
 H       -16.9088853259        1.7855116460      -11.5758409829
 H       -16.0840780508        1.3611493713      -13.1262201944
 H       -17.5463590623        2.3414391194      -13.0960020426
 H       -10.4827130924        7.1227126626      -15.1520872627
 H       -11.0964208578        7.3130648081      -13.5410855109
 H       -12.3208636510        6.8913181653      -14.7023390001
 H        -9.8919308063        3.6741949301      -15.1873025445
 H        -9.4536999023        5.1843329568      -15.7571627777
 H       -11.0632109926        4.6133851552      -16.2224288232
 H        -6.5438610790        3.0402162052       -7.8522818801
 H        -8.1802423840        3.5824883356       -8.3086817686
 H        -6.9491608526        4.0450846128       -9.4188471886
 H        -5.5731022293        1.1524452511       -9.1465279572
 H        -5.5462934720        2.2898370121      -10.4916423696
 H        -6.2375648363        0.5371335458      -10.7203319449
 H       -13.7814496217       -0.1083091949      -10.8516603995
 H       -14.2087869940       -0.6230956442       -9.1560589303
 H       -14.2565474481       -1.8123500179      -10.5337708840
 H       -12.6080160356       -3.2176476661       -8.8502414950
 H       -12.6914124833       -1.8183889273       -7.6913938060
 H       -11.2208905880       -2.3425814443       -8.1907777966
 H        -9.5971151855       -3.3139701978      -15.1151512534
 H        -7.9360663996       -3.4330852695      -15.7844237878
 H        -8.2956179103       -2.1290477016      -14.6749750280
 H        -9.7128668715       -5.4613735435      -14.2799403860
 H        -8.3646128681       -6.3518838387      -13.5047519134
 H        -8.3749336477       -5.8421430267      -15.2011109295
 H        -2.9195519308       -4.3285484912      -15.1267562088
 H        -1.1854210992       -4.1365236162      -14.8012468787
 H        -2.2176839042       -3.7058136563      -13.5448238861
 H        -0.6839985471       -6.9514645069      -14.7113989572
 H        -2.0699868793       -6.9396823227      -15.7285394714
 H        -2.1115646115       -7.7401269479      -14.1790398950
 H        -0.5004223485       -5.3679616051       -8.1069982457
 H        -1.8745879906       -4.6442953807       -8.9998522582
 H        -1.4327690365       -4.0501774431       -7.3426320244
 H        -1.0371804027       -1.4773785745      -10.0408504785
 H        -2.0785993928       -2.1660850634       -8.8725638634
 H        -2.1808249732       -2.9893573612      -10.3794474753
 H         4.9867394790       -7.1145664319       -6.6403507481
 H         3.7277406926       -5.9971137009       -6.0014612782
 H         5.3642978950       -5.9235894694       -5.4563806113
 H         5.1997253783       -2.5383402396       -6.8829824346
 H         5.4184085258       -3.4431770909       -5.4961674339
 H         3.8622652301       -3.2885027662       -6.1560520832
 H         9.8184204263       -3.6642538012      -12.4928821139
 H        11.1575922815       -3.4944322689      -11.4087444166
 H         9.5133915509       -3.2501318353      -10.8512948592
 H        11.1650763192       -7.2359692524      -11.2412362628
 H        11.8553206899       -5.7664569208      -12.0076806761
 H        10.3517822070       -6.5437738184      -12.6636628346
 H        13.5956061340       -8.9354705969       -5.2605527486
 H        13.8426625403       -7.3574898374       -5.7085694019
 H        13.4446227618       -8.5480373360       -6.9782984655
 H        11.2368112759       -9.9631326268       -5.2916818375
 H        10.3849507792       -9.1303606486       -6.6919132087
 H         9.9400435829       -8.8695762486       -5.1576217241
 H        12.1772382051       -2.2967619345       -1.9617078984
 H        11.8234497887       -4.0446456222       -1.4417515032
 H        10.6074344553       -2.7457254234       -1.2232079563
 H         8.8697524084       -2.3936672028       -2.5201581804
 H         9.0764170361       -2.4873359829       -4.2982459411
 H         9.9712083470       -1.3621432059       -3.3372597116
 Na        9.6168321552       -4.5397879759       -6.6021842133
 Na      -11.8764856368        1.6337497490      -11.7354391152
