232

 C        13.1076316746       -3.5332479560       -4.3769212722
 C        11.5938843015       -3.3443381122       -4.3804180093
 O        11.0772113104       -2.9305924417       -5.4280976078
 C        10.6778960387       -3.5127888274       -3.1507157108
 C        10.0233994097       -4.8933569555       -3.3316134685
 O         9.2719611346       -5.1578211679       -4.2694892639
 C        10.3220728440       -6.0985921275       -2.3614105796
 C        10.3834894943       -7.2780716884       -3.3342337987
 C        11.7853139847       -7.2675624623       -4.2035875766
 O        12.6494129332       -6.5784846547       -3.7849011176
 C        11.9461161942       -7.9317828408       -5.6653638928
 C        11.4437663780       -6.8713708107       -6.6884719796
 O        10.2182908106       -6.6038614083       -6.6508853444
 C        12.2906704342       -5.9761596346       -7.6349252586
 C        11.8159413000       -6.1325538798       -9.1086884573
 C        10.7090062904       -5.0282788397       -9.4675949691
 O        10.2904121204       -4.2225586727       -8.6363698671
 C         9.9638980454       -5.2015627447      -10.8790636647
 C         8.6589509443       -5.9497343235      -10.5394158912
 O         8.5299296866       -7.1161612969      -10.7782825403
 C         7.6899589421       -5.1149939714       -9.7792954637
 C         7.0968236075       -5.8491033543       -8.6063033172
 C         6.5703467486       -4.8238699656       -7.5748038554
 O         7.3487004610       -4.1465616749       -6.9497449995
 C         5.0546803859       -4.8269817456       -7.0573044759
 C         4.1329340624       -4.6191987943       -8.3528880774
 O         4.4971670417       -4.6165207103       -9.5173471738
 C         2.6055189981       -4.5514916909       -8.0487000286
 C         2.2669308138       -3.1198018657       -8.2032682700
 C         0.7981524474       -2.6194056081       -8.4821835461
 O         0.5699483867       -1.4997382469       -8.0322426307
 C        -0.2808201400       -3.4347673444       -9.2735702383
 C         0.4425156811       -3.9332648688      -10.6057926215
 O         0.8074385824       -3.0568085345      -11.3163637935
 C         0.6871592793       -5.4494628192      -10.9635204027
 C         0.1039938550       -5.9338932026      -12.2993195620
 C        -1.3689880151       -5.6048966944      -12.3295825766
 O        -1.8252839797       -5.0823115647      -11.3170987148
 C        -2.2412169443       -5.8465440518      -13.6376284532
 C        -3.7054059905       -6.2962711705      -13.2393325612
 O        -4.0676745604       -7.4217291049      -13.4756086344
 C        -4.5956037389       -5.3930033309      -12.3809142191
 C        -6.0589871925       -5.4877853069      -12.8576368737
 C        -6.6599972593       -4.2558087738      -13.5642931260
 O        -6.1682850944       -3.1135428952      -13.6982268442
 C        -8.1424925988       -4.3543224914      -13.9729504872
 C        -8.9473087973       -4.0701980081      -12.5612011328
 O        -8.7429541821       -4.7480459564      -11.6171168999
 C       -10.0264952888       -2.8728700175      -12.6301543775
 C       -10.6939538987       -2.7102452238      -11.2164933617
 C       -11.5607557167       -1.4584144308      -11.0249744229
 O       -11.9258111746       -0.7332801564      -11.9453048361
 C       -12.1444487079       -1.1223560138       -9.5766419154
 C       -11.3153016085        0.0960789390       -9.1175405558
 O       -11.4811840285        1.1714943842       -9.7384245520
 C       -10.4645950358        0.2526870618       -7.8353807115
 C        -9.3481524704        1.3399765859       -8.0583160780
 C        -8.3208579242        0.8560501384       -9.0605472978
 O        -8.2050260600       -0.3329904899       -9.3429787634
 C        -7.3791265837        1.9437490570       -9.7562920088
 C        -8.3335692886        2.3697143060      -10.9730939604
 O        -9.1055781891        1.5732483867      -11.3815077749
 C        -8.1523155946        3.7716532072      -11.6409490892
 C        -9.0240832654        3.8587665437      -12.9976865215
 C        -9.6794170369        5.3132743651      -13.1033373141
 O        -9.2959268160        6.1292023814      -12.3030057500
 C       -11.0702095060        5.4058525023      -14.0696332229
 C       -12.1897216682        4.6864252860      -13.2321385725
 O       -12.3996019308        3.4910310266      -13.4366015253
 C       -12.9159679937        5.4910730055      -12.1812844093
 C       -13.5170071577        4.5711833051      -11.1658870986
 C       -14.4828540883        3.3880584776      -11.6395833831
 O       -14.0364536432        2.2854959467      -11.4320666278
 C       -15.9150438223        3.5210474746      -12.2812633442
 C       -16.8003602608        4.5651457588      -11.3406306808
 O       -16.4721987827        5.0127520577      -10.2763873127
 C       -18.2587853302        4.8117256935      -11.7965160352
 C       -18.8133036384        6.2423182057      -11.4997279621
 C       -19.7160875584        6.6858489232      -12.7181502066
 O       -19.6281698540        6.2344714320      -13.7980009490
 C       -20.7084764944        7.8383176082      -12.3913915554
 C       -19.7896476134        9.0984306910      -11.8043813599
 O       -18.5682509368        9.1469227861      -11.8760080878
 C       -20.3753736764       10.4832561527      -11.5045791754
 C       -21.4270099654        8.2939239245      -13.6511633682
 C       -21.8426070615        7.5248843951      -11.2674975299
 C       -15.5561463891        4.1617274027      -13.6550296257
 C       -16.5294373423        2.1934130099      -12.5340250080
 C       -11.2315502215        6.9148170448      -14.2507530246
 C       -10.9730608611        4.5118370577      -15.3786075584
 C        -7.1563715988        3.1739027062       -8.7780113176
 C        -6.0262002657        1.2814317940      -10.2901239033
 C       -13.6113044502       -0.4814381633       -9.7227124607
 C       -12.1590102884       -2.4009999795       -8.6779550920
 C        -8.3873882823       -3.3099800230      -15.1150853249
 C        -8.4707118002       -5.8489367253      -14.3907804709
 C        -2.3547375859       -4.5414385533      -14.4839013854
 C        -1.4871008950       -6.8900492685      -14.5172735502
 C        -0.8762497429       -4.6523169625       -8.4664742530
 C        -1.2720893270       -2.3172778706       -9.5247445245
 C         4.7225379227       -6.1967846054       -6.5281743078
 C         4.9203228602       -3.6596183576       -6.1321618409
 C         9.6883527133       -3.8315623876      -11.5437931282
 C        10.7446158082       -6.0434754804      -11.8682578093
 C        13.4117838688       -8.2888910978       -5.8975620055
 C        11.1580834414       -9.2676695172       -5.9195878855
 C        11.4995104467       -3.3678679861       -1.7885138799
 C         9.5756497366       -2.3270247269       -3.3245292317
 H        13.3826767710       -4.3869818675       -3.7892774373
 H        13.5908623143       -2.6772111300       -4.0042069787
 H        13.3671019816       -3.7361147412       -5.3677115458
 H         9.7951073405       -6.3027642416       -1.4156757735
 H        11.3990476114       -5.7926491519       -2.1131459798
 H         9.5194198197       -7.2209276647       -4.0561022829
 H        10.4399785055       -8.2143898992       -2.7110145968
 H        13.3484759397       -6.0956429339       -7.6183796111
 H        11.9345317085       -4.9659324378       -7.3060170141
 H        11.3040170351       -7.0969668265       -9.2500543060
 H        12.7304750659       -5.9780602957       -9.7000109692
 H         6.9925503586       -4.6719174316      -10.5727548709
 H         8.1410796572       -4.2270614170       -9.3933217001
 H         7.9959636450       -6.3464293524       -8.0747604752
 H         6.4316564671       -6.6789956049       -8.9488682524
 H         2.1542964116       -4.7735553404       -7.1130079703
 H         2.2064923777       -5.0568927217       -8.9325351811
 H         2.8075730267       -2.6463824908       -9.0412066901
 H         2.5228051684       -2.4548311183       -7.3491003349
 H         0.3168206854       -6.0520408110      -10.1782127027
 H         1.7614588555       -5.4929927629      -11.1094761171
 H         0.5140824791       -7.0133526007      -12.3857526574
 H         0.6976301044       -5.3920998556      -13.0044093197
 H        -4.3184504036       -4.3086182594      -12.4504499957
 H        -4.6324112238       -5.5660537260      -11.2857855092
 H        -6.6908002333       -5.8393315061      -12.0440106887
 H        -6.1270674169       -6.2097050960      -13.6631523043
 H       -10.7620379832       -3.1235194611      -13.3988721357
 H        -9.6840405306       -1.8475889734      -12.8790968575
 H       -10.0891487047       -3.1032107180      -10.3664001886
 H       -11.5499198420       -3.3479775457      -11.4391168717
 H       -10.1198748927       -0.7079670369       -7.5672581888
 H       -11.1326881213        0.5867030830       -6.9642790530
 H        -8.7533490488        1.6043088608       -7.1258474014
 H        -9.8311435683        2.2503437419       -8.4665061688
 H        -7.1597423019        3.8986918754      -11.8087456390
 H        -8.5264949384        4.6661288213      -11.0574484382
 H        -9.7534073303        3.1217402387      -13.0762177081
 H        -8.2576303905        3.6847383685      -13.7537779451
 H       -13.7245926319        6.1042591864      -12.5989251310
 H       -12.2724526934        6.2523421648      -11.6496694292
 H       -14.1476987250        5.1822020933      -10.4628412700
 H       -12.7857610974        3.9458623174      -10.6016788417
 H       -18.8206217895        3.9769299701      -11.3092879904
 H       -18.4445137608        4.5188716245      -12.8658952523
 H       -18.0815663785        7.0351628781      -11.4415929531
 H       -19.4113245056        6.2772473273      -10.6373431181
 H       -20.3657814500       10.8385984341      -10.4778141559
 H       -21.4495831279       10.4754217976      -11.7115096719
 H       -19.9415870257       11.1900641997      -12.1301331832
 H       -20.9584021041        9.0702232613      -14.2360075363
 H       -22.3899553203        8.7711802552      -13.5101106309
 H       -21.4243928560        7.4441181153      -14.3322635024
 H       -21.4575935247        7.4079937362      -10.2704428046
 H       -22.3429100416        6.5591389922      -11.4302546723
 H       -22.6169140208        8.4290176133      -11.2939308462
 H       -16.3937397038        4.0294559873      -14.3008221812
 H       -14.6227774558        3.7835015578      -13.9962513237
 H       -15.3949739972        5.1882912969      -13.4623443690
 H       -15.8460661081        1.4863505877      -12.0424236728
 H       -16.5753102744        2.0560946148      -13.5853287725
 H       -17.5836436394        2.0325165219      -12.2015722976
 H       -10.3665332179        7.1193286706      -14.8889785049
 H       -11.0688470266        7.5296720813      -13.3864388646
 H       -12.2107365577        7.0993307715      -14.6284057411
 H       -10.8070135896        3.4458279055      -15.2222518068
 H       -10.1493708305        4.9210146003      -15.9111734389
 H       -11.8868114014        4.7079147462      -15.9781843323
 H        -6.7490416439        2.8723246003       -7.8799094257
 H        -8.1822455665        3.6424948849       -8.4651561711
 H        -6.5731220992        3.9290956803       -9.2737918536
 H        -5.3381799033        1.1601017801       -9.4488888173
 H        -5.6221826507        1.9874564532      -10.9759100468
 H        -6.3065717566        0.3563313806      -10.7574254196
 H       -13.6820288181        0.0682085502      -10.6129933527
 H       -13.7949971172        0.0861139182       -8.7607440010
 H       -14.2413280925       -1.2916341259       -9.8325865129
 H       -12.9268258706       -3.0819402685       -9.0724140476
 H       -12.3817345646       -2.1725432279       -7.6977387311
 H       -11.2666694592       -2.9942028611       -8.5477667034
 H        -9.4777563099       -3.1909544607      -15.1923933825
 H        -7.9334024266       -3.5702991391      -16.0439056462
 H        -7.9237482710       -2.4205229652      -14.8673280376
 H        -9.3552537711       -5.8117457370      -14.9718245674
 H        -8.5430400575       -6.3515215079      -13.3870830287
 H        -7.6126290484       -6.2843366441      -14.9369167350
 H        -2.9872678374       -4.6475004143      -15.3659274344
 H        -1.3676356159       -4.1986744785      -14.7236164369
 H        -2.7576701220       -3.7271351195      -13.8836528014
 H        -0.6383944326       -6.3576203358      -15.1237819437
 H        -2.1582124995       -7.2491441545      -15.2072019561
 H        -1.2025069789       -7.7918808718      -13.9577291398
 H         0.0546111315       -5.2972988642       -8.3887243209
 H        -1.6881459253       -5.2153547604       -8.9739029228
 H        -1.1416339093       -4.3941030114       -7.4692139008
 H        -0.7542839781       -1.5052931358       -9.9469787316
 H        -1.8996568694       -1.8395336486       -8.8075266026
 H        -1.9183348397       -2.7115940779      -10.2478268010
 H         5.4758469024       -6.9292722746       -6.8169350049
 H         3.7675565402       -6.5684212406       -6.8949798930
 H         4.6734708389       -6.1905673458       -5.4432801270
 H         4.6958029468       -2.6750964620       -6.5018289934
 H         5.7582944009       -3.4880324432       -5.5135884757
 H         4.1877405739       -3.8682899823       -5.3706728823
 H         8.8349151169       -3.9766459785      -12.2034680252
 H        10.4812261372       -3.4034044408      -12.1279614692
 H         9.2301177664       -3.0758753250      -10.8684718198
 H        10.6216699498       -7.0799952052      -11.6235521041
 H        11.8316201551       -5.9197838400      -11.8784676882
 H        10.2789525796       -5.8964109487      -12.8414019095
 H        13.7590932586       -9.2487590770       -5.4098437658
 H        14.0296651421       -7.5220023165       -5.4003042025
 H        13.6195870095       -8.1873339449       -6.9651438378
 H        11.8266111678      -10.0774380322       -5.6197796129
 H        10.9173531100       -9.3035484164       -7.0087250532
 H        10.2242806894       -9.3489614880       -5.3636047973
 H        11.5546383956       -2.3296557613       -1.5042377291
 H        12.4024119860       -3.9629262708       -1.8243882561
 H        10.8747577693       -3.8319523401       -0.9514890607
 H         8.9192446974       -2.4791887616       -2.4757865756
 H         9.0048070152       -2.3933411188       -4.2595402902
 H        10.0083170581       -1.2970410247       -3.2515434946
 Na        9.5434068844       -4.5455618990       -6.5280957557
 Na      -11.7467350413        1.7985056593      -11.8727008192
