232

 C        12.9236201898       -2.6427065760       -4.1463081243
 C        11.5073963141       -3.1452363701       -4.3010127172
 O        10.9213094776       -2.7865769609       -5.3344686584
 C        10.7215015500       -3.7271556704       -3.0979091647
 C        10.0106634856       -4.9681684315       -3.6778529866
 O         9.3181788989       -4.8574154583       -4.7414001230
 C        10.0752428301       -6.3404353982       -3.1082658706
 C        10.6607302773       -7.4385779868       -3.9880796243
 C        12.0378081922       -7.0065995034       -4.5323606033
 O        12.6647834126       -6.0885524874       -4.0109810534
 C        12.3925689264       -7.7271827239       -5.8600506549
 C        11.7619094393       -6.6818315876       -6.9135697319
 O        10.5753746098       -6.4554092617       -6.8658511340
 C        12.7105100172       -6.0266073088       -7.9313427338
 C        12.0561269472       -6.1485936339       -9.3014888508
 C        10.9218855070       -5.0656158048       -9.3966560928
 O        10.9634203748       -4.1628576148       -8.5801430986
 C         9.8808287765       -5.1417858918      -10.6280559009
 C         8.6167853539       -5.9177921370      -10.0091678882
 O         8.5201829586       -7.1157549583      -10.0807550419
 C         7.8156338575       -5.0736610158       -9.0900432071
 C         7.2818175364       -5.9246354582       -7.9451959549
 C         6.4869402847       -4.9586022618       -7.0069090136
 O         7.1289683991       -4.0180377730       -6.5781554218
 C         5.0469304908       -5.1888957893       -6.7029099241
 C         4.3750583455       -4.5868024478       -8.0285209952
 O         4.8092648699       -4.7044389795       -9.1420122656
 C         2.8239377775       -4.1965498324       -7.8175843482
 C         2.6514889764       -3.0145816855       -8.8909335801
 C         1.1683111745       -2.4028368321       -8.8275116239
 O         0.9873845952       -1.3442436226       -8.3297624306
 C        -0.1252977173       -3.2881839206       -9.3856083819
 C         0.3905419217       -4.0793088088      -10.6265140758
 O         1.1012081324       -3.5315413242      -11.4757384402
 C         0.2341560156       -5.5926009091      -10.8622837781
 C        -0.2386634222       -5.9701163354      -12.3249949212
 C        -1.7549175400       -5.6419128117      -12.4550549209
 O        -2.3920404387       -5.0545483397      -11.6144481293
 C        -2.5372797109       -5.9953506601      -13.7698910904
 C        -4.0604330516       -6.3031636295      -13.4441979064
 O        -4.6047455234       -7.2559114296      -13.9885711664
 C        -4.9024774697       -5.3991357485      -12.5976700055
 C        -6.4539848963       -5.6178403758      -12.8131883849
 C        -7.0776296151       -4.5566798472      -13.7032165287
 O        -6.4103719260       -3.5338745550      -13.8340434274
 C        -8.4911946759       -4.5945747412      -14.2281252163
 C        -9.4629004544       -4.1570384532      -12.9895103429
 O        -9.9655220762       -5.0521577623      -12.3498397304
 C        -9.6076717298       -2.6628369752      -12.6284365076
 C       -10.0874596005       -2.3592623071      -11.2127096912
 C       -11.1124917991       -1.2608102376      -11.0223929046
 O       -11.5605101928       -0.6606364035      -12.0106619514
 C       -11.5824521048       -0.9179540222       -9.5812360794
 C       -10.9296369819        0.4081326015       -9.0531573892
 O       -11.1733784720        1.4578407904       -9.5715207804
 C       -10.1241792886        0.4085483420       -7.7251949177
 C        -8.8363927778        1.2214248615       -8.0416945580
 C        -8.1717249510        0.6175144952       -9.3997138285
 O        -8.1619925859       -0.5478921927       -9.6035900910
 C        -7.5313241294        1.6331413528      -10.3500461807
 C        -8.5043476154        2.0362298397      -11.5625994748
 O        -9.4721638169        1.3729313356      -11.9198199648
 C        -8.3136341580        3.4974454183      -12.2281243503
 C        -9.2480502933        3.8411938124      -13.3912242525
 C        -9.8423654291        5.1588542643      -13.0689218232
 O        -9.3726972665        5.9471428020      -12.3014240007
 C       -11.1653820283        5.5099112188      -13.9098025120
 C       -12.1711764580        4.7802563693      -12.9452822741
 O       -12.1655531323        3.5769530144      -13.0592008079
 C       -12.8717122642        5.5952205927      -11.9187413660
 C       -13.6135529891        4.7988109286      -10.8309064757
 C       -14.4724149017        3.6155848758      -11.1797231975
 O       -14.0682585383        2.4740221925      -11.0428499869
 C       -15.9514455146        3.8000949094      -11.7363048231
 C       -16.9109104916        4.5776644594      -10.6998897598
 O       -16.3384212119        4.8336434561       -9.6997491591
 C       -18.3129841302        4.9652925880      -11.1109601315
 C       -18.5384356863        6.4214084775      -11.4717297175
 C       -19.6953710357        6.4734133027      -12.5438947349
 O       -19.7546780321        5.6664982775      -13.4384238725
 C       -20.6183948021        7.7886770082      -12.4018416659
 C       -19.9193180644        9.0185762710      -11.9272732906
 O       -18.7170662308        9.0418728011      -11.5833837393
 C       -20.7047502501       10.4465594809      -11.6872482136
 C       -21.3555580232        8.0395517144      -13.6931985842
 C       -21.6130810472        7.4014390249      -11.2538996365
 C       -16.0049270875        4.6316094899      -12.9754042244
 C       -16.6270297346        2.3824234711      -11.9385345918
 C       -11.2097947356        7.0802764484      -14.0470153663
 C       -11.1230445807        4.9525607789      -15.4421456850
 C        -6.9500762953        2.9073803821       -9.6230003097
 C        -6.2399909855        0.9440293973      -11.0630738334
 C       -13.0970961647       -0.5942653493       -9.6418660869
 C       -11.3576954741       -2.1253570504       -8.6238631604
 C        -8.7974555867       -3.4891858214      -15.3259612140
 C        -8.9079742273       -5.9452376663      -14.9027625233
 C        -2.5980047672       -4.7160616972      -14.5998379767
 C        -2.0951459171       -7.1958306310      -14.5813365433
 C        -0.4236688638       -4.3334138042       -8.3250070364
 C        -1.2558915579       -2.3454750366       -9.6933897120
 C         4.5193760381       -6.6581477637       -6.7320260476
 C         4.6889152262       -4.4591469643       -5.4094628446
 C         9.6714636423       -3.6672424547      -10.9659686793
 C        10.5601467099       -5.8816103767      -11.8791806877
 C        13.8332815464       -8.0434921869       -5.9160187822
 C        11.5037714884       -9.0426048491       -6.1382484035
 C        11.6819879173       -3.9529994908       -1.8424317545
 C         9.6468845726       -2.5713197749       -2.5945888215
 H        13.6607192146       -3.4289807511       -3.6922043608
 H        12.7710419121       -1.8870071812       -3.4279123790
 H        13.2832427883       -2.2567851414       -5.0969639382
 H         9.1000493560       -6.6366298601       -2.7844961294
 H        10.5024801359       -6.3526933683       -2.0781293252
 H        10.0542936669       -7.5493449385       -4.8914001338
 H        10.8287449748       -8.2541349453       -3.2894077686
 H        13.7374526199       -6.5254926161       -7.9700988311
 H        12.7522178354       -4.9307769047       -7.8217893238
 H        11.6756315109       -7.1397614105       -9.4609346697
 H        12.7721940728       -5.9803735393      -10.0836710328
 H         6.8890114859       -4.8448758674       -9.6105158413
 H         8.2514803193       -4.0807020228       -8.7646514052
 H         8.0642989794       -6.4527315469       -7.4655565708
 H         6.6645344836       -6.7783992867       -8.3674426511
 H         2.7872594581       -3.8819030121       -6.7476667213
 H         2.2415695812       -5.1468246344       -7.9632857170
 H         2.9569336616       -3.4148092702       -9.8820012340
 H         3.3456874184       -2.2673063299       -8.5305347102
 H        -0.4533648234       -6.1112642706      -10.1812483973
 H         1.1483003667       -5.9940458942      -10.5465306599
 H        -0.0728936683       -7.0666314870      -12.4393821378
 H         0.3488161440       -5.5555426665      -13.2237637140
 H        -4.7593421453       -4.3815145935      -12.8686852295
 H        -4.5282947459       -5.5161768302      -11.6468088204
 H        -6.9470199059       -5.6157778770      -11.8156558225
 H        -6.6100131928       -6.6545702707      -13.1565200272
 H       -10.2829946997       -2.3576563262      -13.4843929516
 H        -8.7542689362       -2.0500705088      -12.8356987342
 H        -9.2176188554       -1.9342944327      -10.7091094057
 H       -10.3226413807       -3.2543498141      -10.5892504900
 H        -9.7893735518       -0.6227392391       -7.5131362105
 H       -10.6152848793        0.8288332297       -6.8880887700
 H        -8.1212834500        1.2288281781       -7.2604857088
 H        -9.0284772608        2.3042956750       -8.0651231406
 H        -7.2246397264        3.6980237353      -12.5839565842
 H        -8.3570815846        4.1741033073      -11.4382527838
 H        -9.8829099796        2.8744822709      -13.5772176780
 H        -8.6954314362        3.9103988013      -14.3869942900
 H       -13.5278152768        6.3031794668      -12.4903673794
 H       -12.2464683692        6.3364815429      -11.4383196434
 H       -14.2875217131        5.3996876348      -10.2149441719
 H       -12.8090486568        4.2815458512      -10.1866506216
 H       -19.0117476461        4.7061578668      -10.2928537972
 H       -18.5464898505        4.2468581913      -11.8938542120
 H       -17.7202432765        6.8135266753      -12.0454349247
 H       -18.6160839575        7.1114524058      -10.6121967897
 H       -20.3860707537       11.0174987160      -10.8276471987
 H       -21.6981491625       10.2406165846      -11.4340400000
 H       -20.7483658809       11.0546673531      -12.5734359160
 H       -20.6279092179        8.3785676318      -14.5076642809
 H       -22.1035476769        8.9196617925      -13.6395769950
 H       -21.8014888927        7.1958388024      -14.1011007153
 H       -21.1298469745        7.5821775939      -10.3000583582
 H       -22.0422117983        6.4299286432      -11.4029232671
 H       -22.4503396628        8.0858769613      -11.3244204862
 H       -17.0270884408        4.5821368643      -13.2863964347
 H       -15.4982199220        4.0449542643      -13.7192753034
 H       -15.6859522767        5.6291075781      -12.8042522103
 H       -16.6584879567        2.0431622413      -12.9953232661
 H       -17.6238517494        2.3829000067      -11.4724354282
 H       -15.9638966807        1.7111485538      -11.3991158178
 H       -10.7630275787        7.4381588354      -14.9857776462
 H       -10.6528990733        7.3826003298      -13.1892363531
 H       -12.1625590916        7.5299166527      -14.1747619382
 H       -11.1880588046        3.8938144559      -15.3109815926
 H       -10.2404005850        5.3765668818      -16.0245661873
 H       -12.0150701775        5.1885634797      -15.9609868930
 H        -6.5933496999        2.7847004091       -8.6565774417
 H        -7.6350749046        3.7875440549       -9.6299273212
 H        -6.0766041848        3.2067657249      -10.1075854834
 H        -5.3606714231        0.9930501356      -10.4032181708
 H        -6.1086026111        1.6922555908      -11.8769005727
 H        -6.4168765338        0.0421788457      -11.5285575200
 H       -13.2356757609        0.2827387304      -10.2764813014
 H       -13.3397555423       -0.3512901921       -8.6597584738
 H       -13.6549117406       -1.5160078332       -9.8953211714
 H       -11.6595147174       -2.9999399048       -9.0962127823
 H       -12.0157696457       -2.0983750369       -7.7476326703
 H       -10.3451013466       -2.2790187950       -8.4040168162
 H        -9.9048892141       -3.3223928457      -15.2641305117
 H        -8.7917148205       -3.9581877777      -16.2602607127
 H        -8.2658307613       -2.5621164953      -15.2383085385
 H        -9.8386254186       -5.7052746414      -15.5169825922
 H        -9.2814750111       -6.6551795300      -14.1542503227
 H        -7.9665446042       -6.2163285873      -15.4665469315
 H        -3.2125843883       -4.9292665096      -15.4226820019
 H        -1.6532527920       -4.2530512767      -14.9723930132
 H        -3.2254683998       -4.0293115970      -14.0763555579
 H        -1.0597372409       -6.9553804068      -15.0720002690
 H        -2.8042618929       -7.5711354353      -15.2756545976
 H        -1.7103430784       -7.9229289599      -13.8461876947
 H         0.3637003323       -5.0445977421       -8.2473008137
 H        -1.3090571767       -4.8787685146       -8.6506988574
 H        -0.6165577834       -3.8326370355       -7.3611244289
 H        -1.1899052871       -1.7654017960      -10.5520412386
 H        -1.2855371171       -1.6824844365       -8.8534784357
 H        -2.2286350564       -2.7745253815       -9.8085105707
 H         3.9832155999       -6.7804682188       -7.6260517967
 H         3.8730925782       -6.9052315333       -5.9059383226
 H         5.4533912603       -7.2853870021       -6.6508135043
 H         4.8864202558       -3.4031154899       -5.3416295054
 H         5.2651377350       -4.9257037025       -4.5245749885
 H         3.6386556408       -4.5556560211       -5.1230056557
 H         9.0723714302       -3.4944838650      -11.9147275865
 H        10.5625286999       -3.0768150308      -10.9999648455
 H         9.0449350285       -3.1393588744      -10.2095556806
 H        10.5698781897       -6.9873340355      -11.8042889487
 H        11.5649124348       -5.6448825121      -12.1601423742
 H         9.9462704744       -5.6297600165      -12.7933573703
 H        14.0598408351       -8.8434335833       -5.2526594574
 H        14.3566935273       -7.1051907048       -5.6119985857
 H        14.3105120599       -8.3376875866       -6.9088568275
 H        11.8741003500       -9.9214186606       -5.6120720439
 H        11.5782785203       -9.3685437659       -7.1463863838
 H        10.5035278162       -8.7781377569       -5.7654912808
 H        12.2017890741       -3.0029662437       -1.5454816327
 H        12.2661811808       -4.8700543424       -1.8545571105
 H        11.0354674393       -4.1464627763       -0.9706426397
 H         9.0288966213       -3.0157323851       -1.7403862568
 H         8.9403896724       -2.1645670294       -3.3383998690
 H        10.2420391826       -1.7554299337       -2.2555339923
 Na        9.3483755605       -3.9724085280       -6.7286782778
 Na      -12.1606672603        1.7125677947      -11.6136534642
