232

 C       -18.1351275554       -6.0443942420       -3.0674507621
 C       -17.9548803565       -7.5134446097       -2.5620317999
 O       -17.0107316270       -8.1530837145       -2.8869834939
 C       -19.1607397379       -8.1187370276       -1.8206923560
 C       -18.5310901162       -8.8646096888       -0.6181817456
 O       -18.0599003980       -9.9509462003       -0.8098070821
 C       -18.5827763169       -8.2721659068        0.7571332714
 C       -17.2191610452       -8.6290534585        1.4825752109
 C       -16.1605829390       -7.6887026382        0.8913717850
 O       -16.5020451242       -6.5324967693        0.6233667169
 C       -14.6612001832       -8.2049398452        0.6142693391
 C       -14.6148949238       -9.1428936298       -0.6958429979
 O       -15.1927102800      -10.2148102949       -0.6059978388
 C       -13.9271860524       -8.7443097495       -1.9504160447
 C       -12.8173744789       -9.7015418192       -2.5421106574
 C       -13.3710619055      -10.5806231895       -3.6206075669
 O       -14.5146928951      -11.0321081028       -3.6476881924
 C       -12.5076926103      -10.9063474539       -4.8983671475
 C       -12.6699629823       -9.5923542726       -5.6679002496
 O       -12.6924672043       -8.5801768824       -4.9929551445
 C       -12.6714646427       -9.6150816332       -7.2248403823
 C       -12.7059175477       -8.1039147665       -7.6810460106
 C       -13.0021374823       -7.9665501948       -9.1678593012
 O       -13.1807598488       -8.8706084544       -9.9625670195
 C       -13.0151264782       -6.4909460122       -9.6799935050
 C       -11.7524310459       -5.5162140525       -9.3718741655
 O       -10.7680277404       -6.0018202429       -8.8719795036
 C       -11.9709428779       -4.0694164521       -9.8057858635
 C       -10.6566070297       -3.2410161191       -9.5812355467
 C       -10.6783364412       -1.7085552100       -9.8355962190
 O       -11.6968625872       -1.0660335205       -9.8321336645
 C        -9.2826620997       -0.9012817333       -9.8706463147
 C        -8.2297750216       -1.5310637645      -10.9250021551
 O        -8.5922441222       -2.5089362284      -11.5392714191
 C        -6.9135309779       -0.9426855553      -11.1565401831
 C        -5.8419048978       -1.6981170886      -11.9429473716
 C        -4.7140650012       -0.6947249062      -12.4305677768
 O        -4.6497644722        0.4083123386      -11.9671160154
 C        -3.5329690165       -1.2104239293      -13.3041919594
 C        -2.3647321223       -1.5285646196      -12.2006353165
 O        -2.3795104515       -2.5461170332      -11.5632743575
 C        -1.2386641676       -0.4061753238      -11.8974491501
 C        -0.2312566801       -0.9559178376      -10.8588528624
 C        -0.1282900341       -0.1611277223       -9.4520152279
 O        -0.9632420895        0.6179918856       -9.1951075650
 C         0.9689150680       -0.5235606193       -8.4148421402
 C         2.3176222608       -0.0883856615       -8.9246456369
 O         3.0518879993       -0.9257046275       -9.4699714257
 C         2.8118394193        1.3950888814       -8.7464626296
 C         4.1780956869        1.6283733883       -9.2984923213
 C         4.3655128103        3.1107605793       -9.2226090192
 O         3.4677255529        3.9243593853       -8.9274330316
 C         5.7353492780        3.8636116661       -9.6622814490
 C         5.4085661816        4.5111866335      -11.1351253764
 O         6.0384861264        4.0613447705      -12.1021312833
 C         4.2432858846        5.4970260949      -11.2047888856
 C         4.5799868054        6.7858324889      -11.7903877728
 C         4.6040887871        6.8330371300      -13.2785439168
 O         4.1292874481        5.8423853427      -13.8185976938
 C         5.1910085774        8.0784275394      -14.0058663885
 C         6.2280702633        7.8033047035      -15.2456894553
 O         6.1942221251        8.6293589916      -16.0868866036
 C         7.2498818267        6.7247544388      -15.0111077394
 C         7.9277496850        6.1832734683      -16.2296228713
 C         7.0757268901        5.2740178843      -17.1052037893
 O         5.8989376499        5.1061407721      -16.8802436677
 C         7.7466671024        4.7026642768      -18.4725554698
 C         9.1849388844        4.2921052691      -18.2828222257
 O         9.7010974008        4.3244944183      -17.1830868341
 C         9.9567253855        3.6591211859      -19.4681644050
 C        11.0206414526        2.7039106983      -18.9675687254
 C        10.3024616760        1.3356447731      -18.7716318923
 O         9.5190032088        1.0165142879      -19.6627941233
 C        10.9349182383        0.3444629275      -17.7032316301
 C        10.2918543264        0.5238263345      -16.2582853631
 O        10.9031080385        0.1051050991      -15.2319135168
 C         9.0698719530        1.4626093949      -16.1530895048
 C         8.0134569663        0.7162628485      -15.2513836063
 C         6.7238758818        1.4419175950      -15.0876189928
 O         6.7049112912        2.6495724712      -15.2760733006
 C         5.4197702138        0.6612916906      -14.6683901653
 C         4.1870720348        1.2073232025      -15.4733389890
 O         3.7419779824        2.2705629575      -15.1811444743
 C         3.5418492779        0.4265781931      -16.5172483486
 C         5.5300261355       -0.9716000430      -14.8024711622
 C         5.1574227806        1.0289655178      -13.0799362498
 C        10.3964669930       -1.1312997071      -18.0658573447
 C        12.4623002551        0.5090256343      -17.8020390397
 C         6.9262660649        3.3231283719      -18.8497411189
 C         7.6325816279        5.7248493619      -19.5866376992
 C         4.0160385301        8.8303026504      -14.5872542903
 C         6.0202689380        8.9187369837      -13.1022757688
 C         6.1749576515        4.8633331400       -8.5858709283
 C         6.9022740502        2.8839521316       -9.9197139174
 C         0.5825522404        0.1048038608       -7.1006938118
 C         1.0520765435       -2.0271815930       -8.2755821918
 C        -3.9879421889       -2.5687616166      -14.0315507494
 C        -3.0329975955       -0.0613749772      -14.1876283770
 C        -9.6056611250        0.5070520325      -10.2289885337
 C        -8.7384867918       -1.0705639581       -8.4575981175
 C       -13.1685891961       -6.4889240257      -11.2121190976
 C       -14.3006506871       -5.8522999479       -8.9690804681
 C       -10.9855113617      -11.1697813550       -4.5295403631
 C       -13.0782952428      -12.1306114353       -5.6654162657
 C       -13.6559924057       -7.1385452134        0.5264082816
 C       -14.3441182091       -9.1113860894        1.8036226309
 C       -20.2977008259       -7.1717090054       -1.4841121357
 C       -19.8196231980       -9.1634894240       -2.8177624471
 H       -17.5297739172       -5.4524961168       -2.3835859794
 H       -19.1096818159       -5.6888240024       -3.2701962367
 H       -17.5706993231       -6.0771577881       -3.9772317078
 H       -19.4287603388       -8.6110403993        1.3341133002
 H       -18.7037420433       -7.1942506400        0.7815471131
 H       -17.0315024893       -9.7090267016        1.4315972916
 H       -17.2000215615       -8.3842668102        2.5290742138
 H       -13.5551747761       -7.7339578172       -1.9328402094
 H       -14.7837932320       -8.6877905809       -2.6627773732
 H       -12.4171354207      -10.3265076396       -1.8050557688
 H       -11.9484396369       -9.0886777846       -2.9515557578
 H       -13.5766453482      -10.0279908594       -7.5968348518
 H       -11.7926753364      -10.1741492335       -7.6690421847
 H       -11.6504528301       -7.6746284057       -7.8174824496
 H       -13.3047056888       -7.4975519322       -7.0334473633
 H       -12.7333910426       -3.4714974390       -9.2501409505
 H       -12.2602509718       -4.0295772802      -10.8286256321
 H        -9.7268546513       -3.7481646345       -9.8956109228
 H       -10.5765170879       -3.3970622950       -8.4402815066
 H        -6.4433807388       -0.6966022412      -10.2080235696
 H        -7.2170199596        0.0799940755      -11.7027674085
 H        -6.3983257460       -2.1938907944      -12.7186777894
 H        -5.3876967125       -2.5545825897      -11.4279828733
 H        -1.8977755979        0.2746281604      -11.3705618031
 H        -1.0155458512       -0.0460547734      -12.8356130091
 H         0.7617463507       -1.1228144295      -11.4302376053
 H        -0.5388117710       -1.9605945641      -10.6687504220
 H         2.8063994266        1.5883279703       -7.7420117281
 H         2.0606887280        2.0308589646       -9.2472227845
 H         4.3259737306        1.2438513446      -10.3451150579
 H         4.9803773280        1.1127361208       -8.7196047538
 H         3.9073527767        5.7404095688      -10.2375788846
 H         3.3663121003        5.1689788208      -11.5809362719
 H         5.5488539907        7.1319938541      -11.3797739839
 H         3.8046487437        7.5108072605      -11.4267190071
 H         6.8475878428        5.8595217074      -14.4825790132
 H         8.0188960636        7.1664245600      -14.3982077467
 H         8.8664036536        5.6115556304      -15.8201113094
 H         8.2426210505        6.9174018159      -16.8637645988
 H        10.3919813277        4.5214244054      -19.9433546028
 H         9.3206552319        3.1782921281      -20.1757437654
 H        11.3635627838        3.1039635875      -18.0626937800
 H        11.8538718142        2.7050577358      -19.7026691035
 H         8.6101733875        1.6997991072      -17.0783582247
 H         9.3078829880        2.4220236753      -15.6089831278
 H         8.4434168927        0.5122835100      -14.2990733444
 H         7.7354023511       -0.2804094138      -15.7361155189
 H         4.2564442715        0.0388830174      -17.3360031144
 H         2.7264201107        1.0447746024      -16.8082419068
 H         3.1202268553       -0.3877011292      -15.9334317927
 H         4.6635539977       -1.5607567113      -14.4580205543
 H         6.3141005046       -1.2383340430      -14.1806113683
 H         5.9194518145       -1.2571419977      -15.7796846910
 H         4.0930221365        0.7047636834      -12.8169955015
 H         5.2023478967        2.0598199927      -12.8829431790
 H         5.8415460347        0.4314338271      -12.4726685080
 H        11.0765953465       -1.8540486265      -17.5899851889
 H        10.4064242863       -1.1813884120      -19.1340497511
 H         9.3987642526       -1.1883692854      -17.6598117900
 H        12.7673822715        0.0752929372      -18.7498146684
 H        12.9364873230       -0.0734158246      -16.9855769284
 H        12.8078360175        1.5143517453      -17.5663346497
 H         5.8824248752        3.5199776856      -18.6493953860
 H         7.3020941157        2.4979399592      -18.2562584265
 H         6.9846227700        3.2150901743      -19.9444485907
 H         8.5871062283        6.2066962658      -19.7225255940
 H         6.9049158671        6.4009205863      -19.2582192755
 H         7.2450086615        5.2775723258      -20.4803151106
 H         4.3971664015        9.5245779167      -15.3297070556
 H         3.4928197513        9.3397875661      -13.7476248551
 H         3.2354354267        8.2346148810      -15.0298887299
 H         6.4931618429        9.7056205470      -13.7611154491
 H         6.8141562371        8.3271416206      -12.6191910538
 H         5.4605881807        9.5890110316      -12.3781125528
 H         6.0347948288        4.3141828845       -7.6661610656
 H         5.4416936678        5.5847376558       -8.5787324718
 H         7.1646224605        5.1698835961       -8.9410075535
 H         7.7432537726        3.5144401387      -10.1797056811
 H         6.6956613544        2.1027754064      -10.6771511502
 H         7.1158330942        2.2325996598       -9.0864333835
 H         0.1539829961        1.1388087992       -7.2969660123
 H         1.4688944093        0.2349034061       -6.5255827177
 H        -0.1525389712       -0.4636272441       -6.5435537765
 H         0.0903270185       -2.3307401785       -7.7256205697
 H         1.8246113532       -2.3403651018       -7.5321438453
 H         1.1381131368       -2.5421020066       -9.2499344204
 H        -4.5788226569       -3.2547172636      -13.4027926138
 H        -3.1024471477       -2.9576366619      -14.4588477896
 H        -4.6139326906       -2.2986831495      -14.9419306254
 H        -2.0243417179       -0.1506880599      -14.4794470992
 H        -3.2338678752        0.8922053985      -13.7132440916
 H        -3.5158786273       -0.1345367898      -15.1835606898
 H       -10.3747851914        0.9357207777       -9.6210482822
 H       -10.1730301464        0.4174771758      -11.1743672667
 H        -8.8468463435        1.2758494699      -10.3919235552
 H        -9.4845825079       -0.7032430077       -7.7820743753
 H        -7.7568014244       -0.5432530363       -8.3873156435
 H        -8.6248218559       -2.1512497901       -8.1507438070
 H       -13.5802586166       -5.5605893234      -11.6070872362
 H       -13.8339862706       -7.2779016086      -11.4616133218
 H       -12.2188481233       -6.6319274159      -11.7568800009
 H       -15.1965787558       -6.5022358760       -8.9941498832
 H       -14.4254497271       -4.8226923621       -9.3083063176
 H       -14.0678400221       -5.7692971985       -7.9532290956
 H       -10.4501914349      -10.2680111669       -4.4273443442
 H       -10.4419845085      -11.7129375176       -5.2995227852
 H       -10.7733339970      -11.7168808002       -3.6040941360
 H       -14.0228322784      -11.7482476186       -6.0835481184
 H       -13.2993842259      -12.9258901222       -4.9506571771
 H       -12.5110417335      -12.3582121850       -6.5154121797
 H       -13.8004400597       -6.2770596679       -0.1681012880
 H       -12.6841257535       -7.5804088124        0.3839867112
 H       -13.5839323764       -6.6174564325        1.4730424157
 H       -14.8415026995      -10.0300359310        1.7494966482
 H       -14.5379850408       -8.6680624372        2.7719941422
 H       -13.2361622809       -9.4562358924        1.8591222418
 H       -19.8972205534       -6.2512861034       -0.9037608857
 H       -21.0043291491       -7.7020474590       -0.7880957970
 H       -20.8186155151       -6.8202031256       -2.2996886922
 H       -20.7144349226       -9.4893927825       -2.3960231176
 H       -19.0711017661       -9.9754348283       -2.9501305394
 H       -19.9275303750       -8.8257197615       -3.8535174123
 Na      -16.5972356635      -10.5321587880       -2.3886539878
 Na        5.2343995944        4.0034998615      -14.3044601300
