232

 C        12.9746051459       -2.3615872694       -3.9917093013
 C        11.5914832405       -2.9361471590       -4.2754403599
 O        11.1267139607       -2.7584662647       -5.3821501038
 C        10.7528355183       -3.6818650549       -3.0198281188
 C        10.0949781282       -4.9616715567       -3.5741734437
 O         9.4126009665       -4.9387471950       -4.5350587283
 C        10.1388682182       -6.2985018840       -2.7900560752
 C        10.4187559554       -7.3847547915       -3.8818661385
 C        11.8457323969       -7.1249892828       -4.5165558998
 O        12.5333244048       -6.1969621554       -4.1207355139
 C        12.3866512053       -7.6690958336       -5.9396726068
 C        11.9697450038       -6.6082664697       -7.0016236324
 O        10.7947724633       -6.2390578925       -6.9456047831
 C        12.9896654590       -6.0827302794       -8.0527769725
 C        12.3153218683       -5.9515252385       -9.5013280518
 C        11.1504576246       -4.9312253694       -9.5433140942
 O        10.9561459727       -4.1163512133       -8.6538548759
 C         9.9861486483       -5.0826758352      -10.6422102013
 C         8.8947067549       -5.8142514169       -9.8263999788
 O         8.7915682171       -7.0159289287       -9.9495895233
 C         7.8022640241       -5.0345796007       -9.0050051158
 C         7.1197874543       -5.8704088748       -7.9147519699
 C         6.4082721624       -5.0498541340       -6.9004628225
 O         7.0527234739       -4.2197191423       -6.2603814659
 C         4.8825709078       -5.3025594347       -6.6663681383
 C         4.2185004415       -4.5672206137       -7.8871463699
 O         4.7068559398       -4.5602047607       -8.9978751556
 C         3.0137860643       -3.7088760818       -7.6690512052
 C         2.5755189404       -3.2097760712       -9.0440389373
 C         1.2641021616       -2.4997825771       -8.9407320816
 O         1.1462104507       -1.4656675494       -8.3264624695
 C        -0.0045857805       -3.3462495156       -9.4380457062
 C         0.4076704499       -4.1927667635      -10.7101732192
 O         1.0307792571       -3.6786405206      -11.6032098707
 C        -0.0817326274       -5.6000553368      -10.8949498056
 C        -0.5745049187       -5.9491115444      -12.2989228736
 C        -2.0957052340       -5.7228069110      -12.4193149480
 O        -2.6483701635       -5.0764532626      -11.5448734660
 C        -2.8136000420       -6.0043327767      -13.7603200933
 C        -4.3667943576       -6.4391800349      -13.6426815571
 O        -4.8796853746       -7.3572991543      -14.2214851137
 C        -5.1549412420       -5.5274664229      -12.6688653194
 C        -6.6835775706       -5.5083644535      -12.9613274716
 C        -7.2101058603       -4.3357886258      -13.7707631915
 O        -6.6690034242       -3.2950965628      -14.0108379832
 C        -8.6393464355       -4.5567535789      -14.3508565368
 C        -9.5260867578       -4.1770597759      -13.1181702792
 O       -10.1293610981       -5.0073404079      -12.4142207988
 C        -9.4542150206       -2.6958576421      -12.6721244085
 C       -10.0176323443       -2.4608063043      -11.2416031093
 C       -10.8944018103       -1.2132330043      -10.9795120938
 O       -11.1161482878       -0.4213748567      -11.8231639831
 C       -11.6011115500       -0.9369138776       -9.4528680358
 C       -11.0065624770        0.3690112896       -8.8937186353
 O       -11.2917927277        1.4081428301       -9.5024711023
 C        -9.8233938099        0.3977052308       -7.9098499977
 C        -8.7098110263        1.2900338335       -8.3541722277
 C        -8.0771809315        0.6793207007       -9.5841178475
 O        -8.0049854899       -0.5524213891       -9.8432792786
 C        -7.2685965662        1.6307262753      -10.5919505930
 C        -8.4590222595        2.2268424249      -11.5897486097
 O        -9.4839977298        1.5804998832      -11.7405989489
 C        -8.0411126523        3.3789901767      -12.4284557421
 C        -9.1083360170        3.8012936040      -13.4749199141
 C        -9.7485183465        5.1763696741      -13.1947599084
 O        -9.3466792883        5.8080181259      -12.2565851664
 C       -11.1166328738        5.5291892421      -13.9462323569
 C       -12.1135741383        4.8278244891      -13.0084527782
 O       -12.2909686540        3.6141091408      -13.0292492821
 C       -13.0529394611        5.6361247921      -11.9718122131
 C       -13.6006256118        4.7280805664      -10.8468675266
 C       -14.5440460555        3.5372689769      -11.2311168118
 O       -14.1707793063        2.3968721689      -10.9244837304
 C       -16.0004236509        3.8425341764      -11.6746008826
 C       -16.7744681691        4.5417519214      -10.4538934846
 O       -16.3066870445        4.6789876602       -9.3192284178
 C       -18.2819055132        4.8977367857      -10.7429101672
 C       -18.5483544127        6.3984614888      -11.1860162920
 C       -19.6811147768        6.5458244547      -12.2699252806
 O       -19.8155118528        5.6859602099      -13.1555217998
 C       -20.6014777095        7.8082891069      -12.2992237638
 C       -19.9178096790        9.2294311931      -11.9507032941
 O       -18.7540081730        9.1576598164      -11.7086334483
 C       -20.8931950938       10.3474072585      -11.8817173530
 C       -21.2843445840        7.8690962394      -13.6869684171
 C       -21.6860420650        7.4233600957      -11.3248326874
 C       -16.0896469179        4.6500576509      -13.0204752043
 C       -16.6610371831        2.5253198802      -11.8725936856
 C       -11.3154079336        7.0665571971      -13.7895247995
 C       -11.2905528603        4.9762854272      -15.4123402152
 C        -6.6667681335        2.8135942466       -9.7862403479
 C        -6.3455576165        0.7847856500      -11.5313485096
 C       -13.2371060055       -0.8337743530       -9.5709694646
 C       -11.3612758173       -2.1133565221       -8.5258046131
 C        -8.8566769237       -3.6740637253      -15.5858267076
 C        -8.8502705943       -5.9915448073      -14.7632858006
 C        -2.7600971685       -4.7663056395      -14.7284301522
 C        -1.9337118175       -7.1250363428      -14.5455191304
 C        -0.5288472770       -4.1230677741       -8.1669752921
 C        -1.0503717531       -2.3362636010       -9.8437378557
 C         4.6160736348       -6.8405734819       -6.7386658034
 C         4.4704395833       -4.6659083199       -5.3426190280
 C         9.5093242146       -3.6459351926      -11.0265159427
 C        10.3326208135       -5.8949333710      -11.9392559503
 C        13.9708298980       -7.7794200746       -5.7552760102
 C        11.8891697168       -9.0886296506       -6.4938399391
 C        11.6987708355       -4.0289310191       -1.9090066613
 C         9.5173660360       -2.7820588030       -2.6135438907
 H        13.5807587843       -3.1398439551       -3.6070228396
 H        12.9000323286       -1.5149528512       -3.2151069502
 H        13.3440855114       -1.9928039944       -4.9761947497
 H         9.1902355784       -6.5823628096       -2.2611418942
 H        10.7387807855       -6.3216912814       -1.9444337688
 H         9.7438747539       -7.2677789999       -4.6945989922
 H        10.4726748463       -8.3196902106       -3.3620929503
 H        13.7469878198       -6.8153358871       -8.1405779446
 H        13.4299719265       -5.1138652273       -7.8085894469
 H        11.9373726275       -6.9476769573       -9.8996537779
 H        13.0182939285       -5.7148965601      -10.3395863761
 H         6.9907436418       -4.6662835369       -9.6349446660
 H         8.1447519567       -4.1419832521       -8.5105108599
 H         7.8949422892       -6.5373756033       -7.4562547432
 H         6.3927044685       -6.5356004242       -8.2264514744
 H         3.3354630367       -2.9262771929       -7.0055352652
 H         2.3205797058       -4.3449566342       -7.1225601409
 H         2.5034841534       -4.0212274880       -9.7543733121
 H         3.4166501665       -2.5149494796       -9.2129448185
 H        -0.9003831304       -5.7241960978      -10.1828805151
 H         0.5972053328       -6.4017225793      -10.4180006108
 H        -0.3019580468       -6.9557226601      -12.5058916893
 H        -0.0906592651       -5.3801528621      -13.0364817391
 H        -4.7130013266       -4.5115842024      -12.5493391055
 H        -5.1563403359       -6.0140166228      -11.6076714872
 H        -7.0046570284       -5.6246569536      -11.9269490280
 H        -6.9600395520       -6.4668371204      -13.4049828077
 H        -9.7969699737       -2.0414060779      -13.4323944892
 H        -8.3586050659       -2.4449915182      -12.7040171969
 H        -9.1537954515       -2.5248258293      -10.5536762061
 H       -10.7118117381       -3.2231367111      -10.8921638360
 H        -9.4456835151       -0.6259066264       -7.8727277456
 H       -10.1215560976        0.7726977289       -6.9041413569
 H        -7.8579952459        1.4098881359       -7.6342747163
 H        -8.9615531759        2.3217197604       -8.4523302778
 H        -7.0536186702        3.2810425086      -12.7425741627
 H        -7.8882764438        4.2516078610      -11.6642764158
 H        -9.8271881841        3.0184784076      -13.4937554316
 H        -8.7729549210        3.7683963827      -14.4894687960
 H       -13.8179484859        6.2187496755      -12.4517763525
 H       -12.5049195303        6.4219430467      -11.4241242218
 H       -14.1410291382        5.2535910943      -10.0423623638
 H       -12.7995150786        4.2602598552      -10.4041764483
 H       -18.8256527440        4.5317094050       -9.8842562145
 H       -18.5160995191        4.2529133980      -11.5962134338
 H       -17.6082109514        6.7722586891      -11.7030114018
 H       -18.7192895930        7.1694011416      -10.4364800885
 H       -20.4308943764       11.1998606975      -11.3891778027
 H       -21.8347078146       10.0813632563      -11.3196199943
 H       -21.2279255669       10.6141087330      -12.9162752276
 H       -20.7615614976        8.4319683733      -14.4391533504
 H       -22.2389707014        8.3257086928      -13.5043869602
 H       -21.5867946516        6.8692992963      -14.1810789643
 H       -21.2308620498        7.2839943269      -10.3239335257
 H       -22.1405565934        6.5166343609      -11.7376609347
 H       -22.4136763933        8.1768169221      -11.2367038158
 H       -17.0985111952        4.5667104495      -13.4624062947
 H       -15.4694193062        4.1316546977      -13.7545474314
 H       -15.8086740511        5.6823187936      -12.7227034123
 H       -16.3332576440        2.2162539650      -12.8599862852
 H       -17.7512308152        2.6346263652      -11.9720735326
 H       -16.3367384396        1.7912372107      -11.1314955299
 H       -10.7555679040        7.6756068748      -14.4271753081
 H       -11.1683349535        7.2315748541      -12.7218809096
 H       -12.3042518121        7.3658212417      -14.1800349228
 H       -11.4871235036        3.8858455437      -15.3870858833
 H       -10.4244847736        5.2928876788      -15.9384718618
 H       -12.1907650977        5.4495710493      -15.8947567849
 H        -5.8050750282        2.5936245819       -8.9799029771
 H        -7.3516272581        3.4680019509       -9.3582750404
 H        -6.1260899471        3.5151023718      -10.5575838991
 H        -5.5039067917        0.4402241285      -10.9265403415
 H        -6.0150151571        1.3384388272      -12.4013540450
 H        -6.9835087893       -0.1119418748      -11.9088960030
 H       -13.5518571805       -0.3009900497      -10.4777259474
 H       -13.6344671502       -0.3129781723       -8.6729390071
 H       -13.5187733587       -1.8721125541       -9.4539977341
 H       -12.1831004171       -2.8832308668       -8.5851862505
 H       -11.4593669504       -1.7092018759       -7.5132611779
 H       -10.3491152506       -2.6052205552       -8.5854617068
 H        -9.8577088609       -3.3721809597      -15.7801629184
 H        -8.4855786687       -4.1974777728      -16.5228991807
 H        -8.3308084274       -2.7351307274      -15.2559437650
 H        -9.8717451904       -6.0860498258      -15.0622740648
 H        -8.8362075876       -6.5411302772      -13.8321735918
 H        -8.1233253986       -6.2553037871      -15.4975371521
 H        -3.2958104239       -4.9248714314      -15.7369740493
 H        -1.7416723269       -4.6187335730      -15.0165118188
 H        -3.1564910488       -3.8425172970      -14.2542195434
 H        -1.1240662874       -6.7851602048      -14.9994882213
 H        -2.7197546472       -7.3912787035      -15.3027444260
 H        -1.5796197694       -7.9841507922      -14.0265090607
 H         0.1226094143       -4.9505998781       -7.8715353754
 H        -1.5320243797       -4.4363097198       -8.4185136427
 H        -0.6176736923       -3.4714672383       -7.3083832048
 H        -0.5915243853       -1.4902780621      -10.4540337789
 H        -1.7501957333       -1.9009122085       -9.0908365674
 H        -1.6284523696       -2.6775540228      -10.7257119281
 H         4.3037032000       -7.1859718165       -7.7859540929
 H         3.7335035846       -6.9118623767       -6.0772131855
 H         5.4164959824       -7.3904457692       -6.3173669837
 H         4.5275436082       -3.5461609102       -5.3235165273
 H         5.0836888565       -4.9942998495       -4.5240671520
 H         3.3992682962       -4.8260071382       -5.0686521334
 H         8.4937967232       -3.5838786515      -11.3608879782
 H        10.1105278730       -3.0974735838      -11.8098136292
 H         9.5697743181       -3.0324966822      -10.1414214501
 H        10.1672808489       -6.9736298454      -11.6536485357
 H        11.4040786674       -5.8503677614      -12.3138058416
 H         9.7616494708       -5.7511788751      -12.8416521639
 H        14.2539618638       -8.1837096197       -4.7682457957
 H        14.3369133745       -6.7888785740       -5.8398741236
 H        14.5122977660       -8.3560786420       -6.4300880497
 H        12.2429874938       -9.9399929588       -5.8966531871
 H        12.3882117357       -9.2238896046       -7.4871706717
 H        10.8184526188       -9.1022859613       -6.5901182068
 H        12.0997583764       -3.0904257842       -1.4568756884
 H        12.5857762293       -4.6829014630       -2.1881683304
 H        11.1631209951       -4.6361154725       -1.1864091559
 H         9.0782489128       -3.2783715045       -1.7955747323
 H         8.7624881608       -2.8366215870       -3.3914660897
 H         9.6997083038       -1.6981526399       -2.3809685468
 Na        9.6651411036       -4.0533409153       -6.7411300994
 Na      -12.1337207694        1.6468470900      -11.4614786682
