232

 C        12.7868932887       -2.1138350999       -3.7361619447
 C        11.6449642623       -3.1041086985       -4.1359808659
 O        11.2156976892       -2.9604077112       -5.2209961932
 C        10.8342635762       -3.7702677438       -2.9192219931
 C        10.1520414769       -5.1032375607       -3.4394780420
 O         9.4643741344       -5.0476606285       -4.4288158935
 C        10.2664087046       -6.5504486884       -2.9195671812
 C        10.7656954890       -7.4533541478       -4.0865064918
 C        12.0992705359       -6.9384137931       -4.6522074739
 O        12.6543869722       -6.0139409740       -4.1198928246
 C        12.5650482423       -7.5444499992       -6.0267898969
 C        12.0416488361       -6.5080066327       -7.1314069168
 O        10.8665268641       -6.1374370626       -7.1202740290
 C        12.9101622044       -6.1571759829       -8.3010636113
 C        12.2210433870       -5.8057447627       -9.5947695825
 C        11.1791654620       -4.7127930722       -9.6226697551
 O        11.1558995384       -3.7425079917       -8.8465254626
 C        10.1187475785       -4.9549674958      -10.6951670343
 C         9.0201486446       -5.8119762515       -9.7630761164
 O         9.1422346956       -7.0031964303       -9.5565857843
 C         7.8968734779       -5.0535114902       -8.9742793233
 C         7.3333272686       -5.9786943552       -7.8629021252
 C         6.6673549260       -5.2242600298       -6.7443077100
 O         7.3157805253       -4.4476459148       -6.0726602885
 C         5.0892195807       -5.3414332747       -6.4962117906
 C         4.4346988001       -4.5718791839       -7.8567581900
 O         4.8628347785       -5.0142384078       -8.9001294828
 C         3.4605107245       -3.3750475982       -7.7658445272
 C         2.5471245577       -3.2723220866       -9.0054146375
 C         1.1110725157       -2.5084448984       -8.8895066825
 O         0.9468405034       -1.3900974821       -8.4678362456
 C        -0.1008108400       -3.2493637316       -9.6082666190
 C         0.1335795697       -4.2668158053      -10.8279554581
 O         0.8149389098       -3.9102462437      -11.7478531120
 C        -0.4238451744       -5.6373498626      -10.7493808744
 C        -0.9187016605       -6.1004919960      -12.1110861362
 C        -2.3777250623       -5.6399597084      -12.4764100085
 O        -2.9958669652       -5.0916985902      -11.5677875790
 C        -3.0307172098       -6.0276187321      -13.8347105320
 C        -4.5451649642       -6.2663330495      -13.6921068409
 O        -4.9791426422       -7.1978973316      -14.3296568706
 C        -5.4261134830       -5.4489772419      -12.8220363554
 C        -6.8956966999       -5.7509758590      -13.2029280637
 C        -7.4217628640       -4.4937794023      -13.8797776953
 O        -6.7720840410       -3.4796186705      -14.0630126028
 C        -8.9582721329       -4.5361159440      -14.4256873491
 C        -9.7968803419       -4.1256170910      -13.2085188346
 O       -10.4093771131       -5.0056516870      -12.6273727005
 C        -9.7344788183       -2.5585430648      -12.6963853153
 C       -10.3357278209       -2.5482940616      -11.3330419977
 C       -10.8530300358       -1.2452291803      -10.7966948762
 O       -10.9280740236       -0.3993945962      -11.6871027634
 C       -11.4426000756       -1.1535614075       -9.3628670622
 C       -10.9191504717        0.3123751412       -8.8103727976
 O       -11.5017879905        1.3407577427       -9.1085165748
 C        -9.5158310803        0.3239784442       -8.0969847884
 C        -8.5087747561        1.2857570406       -8.6696553734
 C        -7.7549762764        0.7465180173       -9.8663456189
 O        -7.7871823731       -0.4863888821      -10.0627499810
 C        -7.1342382667        1.6406487875      -10.9705257229
 C        -8.2556637157        2.4430317597      -11.7007687727
 O        -9.3674666468        2.4276576140      -11.2197117380
 C        -7.8596465714        3.3308683818      -12.9607807568
 C        -9.1117634524        3.8738290494      -13.6524394534
 C        -9.7621214027        5.1151443929      -13.1073650219
 O        -9.2585701060        5.8675082680      -12.2860966103
 C       -11.1589384699        5.5049421666      -13.8348603643
 C       -12.2233583354        4.7030365515      -12.8800650481
 O       -12.2420330519        3.5124171825      -13.0626426322
 C       -13.0142521418        5.4182014213      -11.7836546168
 C       -13.8924148284        4.6756890497      -10.6819903823
 C       -14.7331060059        3.4645481624      -11.1890390806
 O       -14.2952212948        2.3003086611      -11.2848420384
 C       -16.2312674087        3.7933685908      -11.5181976286
 C       -16.8674972248        4.5727774145      -10.2598476949
 O       -16.2375629580        4.7106291299       -9.2026573007
 C       -18.3946820674        5.0176023458      -10.3360021720
 C       -18.6143285298        6.4706218702      -10.6810033329
 C       -19.5529128416        6.5653653579      -11.9843315765
 O       -19.5742995757        5.6362937269      -12.8020455588
 C       -20.5923927372        7.6609839265      -12.2312446196
 C       -19.9445455061        9.1181195396      -12.0141843201
 O       -18.7965346225        9.2833671829      -11.8484731439
 C       -20.8826774747       10.2833397101      -12.0667413475
 C       -21.1656594123        7.5308082644      -13.6158251847
 C       -21.8340969279        7.4646544851      -11.1943144322
 C       -16.3835206931        4.7675674948      -12.6998270299
 C       -16.9386006078        2.5611139855      -11.8938630944
 C       -11.3576759399        6.9744063593      -13.6691734676
 C       -11.1996075496        4.9788850629      -15.3154315422
 C        -6.1276211036        2.5542924039      -10.3725034791
 C        -6.3610359050        0.7278564376      -12.0121393020
 C       -13.0512476846       -1.0036990762       -9.6557042826
 C       -11.1452239785       -2.3989477421       -8.4173726865
 C        -9.0983161672       -3.5539831395      -15.5800980353
 C        -9.2605344179       -5.9590358958      -14.7969111922
 C        -2.8017090792       -4.7012313343      -14.7410446143
 C        -2.3364283977       -7.1138145168      -14.6215420352
 C        -0.8695852609       -3.8911434438       -8.4387447303
 C        -1.1357761812       -2.1740806093      -10.0812209362
 C         4.4433188403       -6.8044847937       -6.6690664499
 C         4.6999925170       -4.7715475041       -5.0923465575
 C         9.4879344728       -3.6013312756      -11.0306048531
 C        10.5163000883       -5.8390531539      -11.8736652061
 C        14.1387001047       -7.4907064324       -5.9375735455
 C        12.0432051588       -8.9551590801       -6.2371258537
 C        11.7075240256       -4.0230968606       -1.6583723949
 C         9.5447142487       -2.7123771907       -2.7845774898
 H        13.6718185503       -2.6202381147       -3.5432668898
 H        12.5222127741       -1.4799765066       -2.7916290513
 H        12.8245051284       -1.3682538396       -4.5690057660
 H         9.2614910897       -6.7998476729       -2.6028999026
 H        10.8299058424       -6.6478081569       -1.9743583536
 H        10.0723842809       -7.4825879247       -4.9515644124
 H        11.1135537698       -8.3991175173       -3.6974375755
 H        13.6091169715       -6.9716868106       -8.5532774155
 H        13.6238560843       -5.3248252453       -7.9662155960
 H        11.8379074912       -6.6869972258      -10.0138454462
 H        12.8925168994       -5.5747425252      -10.4021595724
 H         6.9470041159       -4.8052349245       -9.5478908613
 H         8.2421607021       -4.1039008325       -8.5783832393
 H         8.0387543903       -6.6645636438       -7.3617090551
 H         6.5744441621       -6.5744754913       -8.2801159676
 H         4.2181927228       -2.5667388037       -7.6630388451
 H         2.8486485539       -3.2660226120       -6.8180535173
 H         2.2385771450       -4.2487025163       -9.3402920344
 H         3.0719393412       -2.6671867546       -9.7513591042
 H        -1.1880476933       -5.6353125866       -9.9974199477
 H         0.2460625453       -6.3181959122      -10.2564288997
 H        -0.8452069073       -7.2563812228      -12.1794109826
 H        -0.1731583980       -5.7113579712      -12.8094491718
 H        -5.1940228234       -4.4401307773      -12.7687695050
 H        -5.2365225023       -5.8781683798      -11.8850462117
 H        -7.4209349891       -6.0434826219      -12.2813339493
 H        -6.8304007508       -6.7067636064      -13.7954603042
 H       -10.2273358296       -1.7589832166      -13.2993858514
 H        -8.6711872342       -2.3169049004      -12.8220021488
 H        -9.5639934709       -3.0523944490      -10.6728748943
 H       -11.1478608952       -3.2651492353      -11.2775978882
 H        -9.0596312869       -0.6044433904       -8.1154367365
 H        -9.7430447234        0.6464012742       -7.0668542922
 H        -7.9341923891        1.8152792120       -7.9064839986
 H        -8.9708165148        2.1471162162       -9.1427454994
 H        -7.1722828934        2.8830400892      -13.6549105835
 H        -7.2711997581        4.2633915365      -12.6950914051
 H       -10.0148499448        3.1849362882      -13.6783984133
 H        -8.9032159496        3.9571889546      -14.8034964470
 H       -13.7367453571        5.9930206452      -12.4122181875
 H       -12.4037540432        6.1612715070      -11.2431065881
 H       -14.5936756471        5.3960916789      -10.2251518580
 H       -13.3208575984        4.3151271584       -9.7753245583
 H       -18.8354526576        4.7075390199       -9.3973951197
 H       -18.8193553692        4.4609914092      -11.1921044683
 H       -17.7197354102        6.9289985351      -11.1439295544
 H       -18.9196940839        7.1033078717       -9.8533375140
 H       -20.4044496001       11.2166179583      -12.2025253393
 H       -21.4265612482       10.1685297546      -11.1186774816
 H       -21.6540211476       10.1287264416      -12.7564143423
 H       -20.3924095761        7.6723559196      -14.3438493348
 H       -22.0757263117        8.0156989282      -13.8016037295
 H       -21.6097441906        6.4626566752      -13.6953503925
 H       -21.5528597093        7.4176733098      -10.1666325526
 H       -22.1229504161        6.4683515736      -11.4614782137
 H       -22.6526594915        8.1931191537      -11.3518220323
 H       -17.4079538745        4.8039642036      -13.0239836815
 H       -15.7384019489        4.5466829232      -13.5279787690
 H       -16.1044463546        5.6469142678      -12.1839585001
 H       -16.2731860859        1.7044941350      -12.0202111887
 H       -17.3297577468        2.6642784221      -12.8772574878
 H       -17.7498816697        2.3078841714      -11.1809534593
 H       -10.7666810332        7.4973548449      -14.4290413873
 H       -11.0578152314        7.3025500349      -12.6557604475
 H       -12.3993754092        7.2726566492      -13.8721190578
 H       -11.0829778298        3.8890787274      -15.3698979466
 H       -10.4295682551        5.4199287902      -15.8728140462
 H       -12.2108202531        5.2687290927      -15.7028149295
 H        -5.4055378123        1.8931766258       -9.7810386088
 H        -6.5170873140        3.1422194741       -9.6200637359
 H        -5.7059056003        3.3129743106      -11.0044002274
 H        -5.8580230696       -0.0349688887      -11.4271633899
 H        -5.6742825895        1.2960000271      -12.5516237406
 H        -7.0499266701        0.1442099673      -12.6825722704
 H       -13.1765863731        0.0085741866       -9.9700896486
 H       -13.5671939943       -1.1067015515       -8.6459900027
 H       -13.3937277874       -1.7558192024      -10.3075980169
 H       -11.3704725185       -3.2809703581       -9.0156664490
 H       -11.7743572401       -2.3398934160       -7.6241693331
 H       -10.1536661473       -2.4568128709       -8.0080832535
 H        -9.9590553600       -3.6978040766      -16.2106789279
 H        -8.1674663556       -3.6664424224      -16.1166215595
 H        -9.2218418476       -2.5782294109      -15.2056139478
 H       -10.2865960549       -6.0806262896      -15.1578747916
 H        -9.0352824926       -6.5740586655      -13.8438037707
 H        -8.6129309268       -6.2349136795      -15.6698632638
 H        -2.9925192346       -4.9914587720      -15.7671372183
 H        -1.7853217917       -4.3928161326      -14.7934818578
 H        -3.3364118323       -3.8519003786      -14.3736125258
 H        -1.3105026216       -6.9180037033      -14.5909182242
 H        -2.7190915534       -7.2117818790      -15.7104050384
 H        -2.5104711009       -8.1251638321      -14.1259281131
 H        -0.1222933486       -4.6441073076       -8.0331538033
 H        -1.7915533962       -4.3396535618       -8.8097872347
 H        -1.0658518869       -3.2857386405       -7.6099935267
 H        -0.9897108862       -1.8938099420      -11.1000120122
 H        -1.0707768375       -1.3577976413       -9.4006209116
 H        -2.1594345903       -2.3923201753      -10.0168029343
 H         4.9592456098       -7.3338505145       -7.4630859793
 H         3.3966815876       -6.5888689825       -6.8362241869
 H         4.6213361031       -7.3645870589       -5.7826895669
 H         5.2618586447       -3.7983855671       -4.9405184667
 H         4.9888709225       -5.4407930277       -4.3254092349
 H         3.6276087398       -4.4904738776       -4.9819463009
 H         8.4282759046       -3.6072220666      -11.1744916262
 H         9.8091151204       -3.2409379974      -12.0218723211
 H         9.8441205288       -2.8586486445      -10.2781737504
 H        10.6331638365       -6.8761367894      -11.7456556528
 H        11.3204822308       -5.4038632846      -12.4892333450
 H         9.7440866348       -5.8941121806      -12.6128987681
 H        14.5231664200       -8.3650774034       -5.2860165311
 H        14.5759897097       -6.5972166746       -5.4627351795
 H        14.6102228795       -7.6747624170       -6.9035796005
 H        12.1682179359       -9.4165073511       -5.2531968864
 H        12.5858751760       -9.4704591612       -7.0768861014
 H        11.0021518266       -9.0294485282       -6.5029888710
 H        12.2698133786       -3.1682558047       -1.3326537867
 H        12.5334840025       -4.6347567566       -1.9469346004
 H        11.1332260917       -4.4990690049       -0.8584876276
 H         8.8977712505       -3.0501832298       -1.9912124540
 H         9.0210487571       -2.7553593704       -3.7404483292
 H         9.7992171379       -1.6440697922       -2.5368444485
 Na        9.6385754955       -4.1386495126       -6.4601889598
 Na      -11.7740062535        1.7712408377      -11.4995781863
