232

 C        12.7815253438       -2.1727667981       -3.4958003610
 C        11.6871900832       -3.1610455127       -3.7940277837
 O        11.2799675675       -3.3922105042       -4.9657772699
 C        10.7409438345       -3.8639673129       -2.5696714902
 C        10.3370911726       -5.2284884023       -3.1918634338
 O         9.4350667350       -5.2953039564       -4.0234909206
 C        11.0879490347       -6.4938091833       -2.6189349475
 C        11.4048956753       -7.3890997833       -3.8597445593
 C        12.6109984399       -6.7641245501       -4.6596789342
 O        13.1308675171       -5.7058293163       -4.3582770943
 C        13.1119349119       -7.3260467229       -6.0637270951
 C        12.3547880551       -6.4311871608       -7.1229629919
 O        11.1330956886       -6.3516671955       -7.0913134481
 C        13.1295296488       -5.6177695740       -8.1537597970
 C        12.2717050383       -5.4556982239       -9.4805111003
 C        10.9934243896       -4.6464271972       -9.4021082630
 O        10.8881503491       -3.7572396446       -8.5633585176
 C         9.9483904182       -4.8714147707      -10.5476487766
 C         9.0113461099       -5.9767485114       -9.9175323846
 O         9.4040444356       -7.0970214748       -9.7441227285
 C         7.7123510413       -5.4320738540       -9.2977753390
 C         7.3913552886       -6.0238976466       -7.9480044357
 C         6.7861939352       -5.0272402113       -6.9898407402
 O         7.3990511607       -4.0169158025       -6.6159817459
 C         5.2589102142       -5.0553186345       -6.6587159971
 C         4.4880371671       -4.7818483921       -8.0879931721
 O         5.1007827873       -5.0855082484       -9.0779690520
 C         3.2153395414       -3.9273301091       -8.0751171286
 C         1.9901857315       -4.2985681781       -8.8680192081
 C         1.0862177401       -3.0531605533       -9.0586982792
 O         1.4999641812       -1.9300316078       -8.8759991061
 C        -0.3730392405       -3.1462864197       -9.5921655818
 C        -0.2392376782       -4.2119682955      -10.7408271858
 O         0.5368423617       -4.0770326155      -11.6955729710
 C        -0.9374523246       -5.7538304645      -10.5763012761
 C        -1.3222343333       -6.2699155631      -11.9241927029
 C        -2.6822474934       -5.6186484793      -12.2603072055
 O        -3.2794971821       -4.9259785928      -11.4831732172
 C        -3.2745945067       -5.8687538952      -13.6735354478
 C        -4.7915138069       -6.2307477359      -13.8723471467
 O        -5.0803513271       -7.1865362088      -14.5702543822
 C        -5.8591992973       -5.5143626411      -13.0487940267
 C        -7.2571623034       -5.7817219227      -13.7400676151
 C        -7.8503183517       -4.4860759044      -14.2299658538
 O        -7.1872038961       -3.4762786817      -14.3201287834
 C        -9.3882507811       -4.4675369268      -14.5867544118
 C       -10.3421765636       -4.1109586841      -13.3944677015
 O       -10.8779097430       -4.9611142410      -12.7347123782
 C       -10.5458572916       -2.6870660809      -12.9333410564
 C       -10.4396480064       -2.5781519551      -11.4273521581
 C       -10.8314311625       -1.2335067820      -10.9064191163
 O       -11.0435353600       -0.3052894047      -11.6309997944
 C       -11.2302034331       -1.0808293423       -9.3006032042
 C       -10.5020674557        0.2016992846       -8.8302303272
 O       -11.0722272444        1.3219589141       -8.9284857685
 C        -9.0758696969        0.3636423917       -8.1726516607
 C        -8.2555666248        1.3772179852       -9.0113428460
 C        -7.8319851299        0.6696741387      -10.3295149575
 O        -8.0830294438       -0.4767958763      -10.5615058047
 C        -7.1721190474        1.5291758404      -11.4278340987
 C        -8.1551911010        2.7311060527      -11.9799712447
 O        -9.1847685158        2.9610764641      -11.3499364786
 C        -7.8684672894        3.4176465112      -13.3066584271
 C        -9.0945827431        3.9657792958      -14.0592890681
 C        -9.7395772917        5.2401122603      -13.3318555909
 O        -9.0384950765        5.8524197456      -12.5462062046
 C       -11.2252614009        5.5002586601      -13.6777898045
 C       -12.0420818854        4.7018701521      -12.6964716588
 O       -11.7257171051        3.5270779203      -12.5737438819
 C       -12.9012938060        5.4366392091      -11.7193891753
 C       -13.6248066932        4.6588083962      -10.5762989188
 C       -14.6536241403        3.4792481859      -11.0140953377
 O       -14.3103010989        2.3842960973      -11.3902666299
 C       -16.2309095004        3.9177218477      -11.3403455804
 C       -16.8316378323        4.5166455514       -9.9749053281
 O       -16.0809638667        4.8012513082       -9.0900340615
 C       -18.3456199150        4.7987049446       -9.9204114695
 C       -18.7118708242        6.3376358011      -10.2568868595
 C       -19.5247375586        6.2782633574      -11.6491935605
 O       -19.3158445658        5.3640560624      -12.3822842070
 C       -20.6249034449        7.4015664674      -11.9398503815
 C       -19.8314915786        8.7286383018      -11.9427674373
 O       -18.5801327014        8.7656493586      -11.9586238636
 C       -20.5337704424       10.1253539330      -12.2186267637
 C       -21.2332966636        7.2032938920      -13.3917518169
 C       -21.8025844475        7.4153947428      -10.8586992370
 C       -16.3360035043        4.8278762369      -12.5706206276
 C       -17.1462264382        2.6176480193      -11.6707379982
 C       -11.4716022668        6.9723385923      -13.5017900617
 C       -11.7149940685        5.1890827680      -15.0968866427
 C        -6.0072429930        2.2861425248      -10.7711021641
 C        -6.8229782995        0.6736432624      -12.6028794098
 C       -12.7809403874       -0.9323246550       -9.4736792836
 C       -10.8703448432       -2.3117945932       -8.3104880665
 C        -9.5031997459       -3.4824371091      -15.6945582491
 C        -9.7625947724       -5.8605713341      -15.0747833376
 C        -3.2291557017       -4.5244426755      -14.5865558394
 C        -2.2844259525       -6.8830260273      -14.4113385847
 C        -1.4085851320       -3.6501532875       -8.5589315489
 C        -0.8440285509       -1.7806337894      -10.2427325879
 C         4.6831262574       -6.4506244364       -6.1610098090
 C         4.9325762846       -4.0023568762       -5.5580913170
 C         9.2502495134       -3.4771945639      -10.8311351278
 C        10.4808756823       -5.3509779601      -11.9318521789
 C        14.6404353258       -7.1882914152       -6.2090876202
 C        12.6831406350       -8.8395461383       -6.3366363038
 C        11.3986176891       -3.9017011509       -1.1907734923
 C         9.4635684448       -3.0025939955       -2.6495119889
 H        13.7891557489       -2.6974432313       -3.1724959383
 H        12.4622530815       -1.4789132193       -2.7454801225
 H        12.9518048433       -1.5507158024       -4.4089617970
 H        10.3006824962       -7.0841603800       -2.1736789694
 H        11.8604917026       -6.1736744223       -1.9981024654
 H        10.5960751725       -7.5064430718       -4.5420649102
 H        11.7074087277       -8.4124848359       -3.5157800145
 H        14.0942878834       -6.1016306062       -8.4703058953
 H        13.5184145029       -4.6451192269       -7.7587529570
 H        12.1215114726       -6.4457679811       -9.9180234023
 H        12.8706919697       -5.0094422193      -10.2270406475
 H         6.9393559342       -5.6550187193      -10.0346476065
 H         7.8081480571       -4.3469154542       -9.1621748875
 H         8.2923649518       -6.5049623287       -7.5754223134
 H         6.6089989430       -6.7330477434       -8.1312984178
 H         3.5493436743       -2.9040233253       -8.4186588897
 H         2.8237441558       -3.7123031302       -7.0615998187
 H         1.3978176112       -5.0643225063       -8.3657060351
 H         2.2006240824       -4.6366106796       -9.9138368186
 H        -1.6985900888       -5.9084506165       -9.8593069173
 H        -0.0644750144       -6.3609415540      -10.2529553153
 H        -1.4697475675       -7.3440840201      -11.9171344078
 H        -0.5081934978       -5.9730721119      -12.6451660481
 H        -5.7424168932       -4.5101919343      -12.9277495030
 H        -5.9173374740       -5.8482523318      -12.0356470497
 H        -7.9215857889       -6.2055868258      -12.9440594532
 H        -7.2881384770       -6.4527201250      -14.5974943650
 H       -11.4850613915       -2.2710343176      -13.3027111452
 H        -9.6348259968       -2.1758512222      -13.3655270230
 H        -9.4319417651       -2.8610128620      -11.0622266428
 H       -11.0584655911       -3.3910866852      -10.9859056093
 H        -8.5389650544       -0.6031589131       -8.1681179989
 H        -9.1808903434        0.6795668296       -7.1682093892
 H        -7.3313701875        1.7258065980       -8.4891660588
 H        -8.7916331087        2.2862307721       -9.1591188277
 H        -7.2906887700        2.7648553639      -13.9448808280
 H        -7.1824132419        4.3172067720      -13.0813284960
 H        -9.9439431303        3.1787998589      -14.1479287114
 H        -8.8434132512        4.4374670370      -15.0533577571
 H       -13.6390006088        6.0149553350      -12.2878789950
 H       -12.2582914802        6.1153677961      -11.1084341891
 H       -14.2043694516        5.2623103359       -9.7969122130
 H       -12.9452249780        4.1444659807       -9.9242669468
 H       -18.7188354535        4.5528185944       -8.9277584360
 H       -18.7603641692        4.1697520747      -10.7004664762
 H       -17.8696616390        7.0568349616      -10.1316630707
 H       -19.5041029888        6.5680051319       -9.5576370961
 H       -19.9426737443       10.6721403084      -12.9336028440
 H       -20.6218346430       10.6235677633      -11.2811730108
 H       -21.5606373553       10.0311342758      -12.6054621933
 H       -20.4616336576        7.4449132744      -14.1485461967
 H       -21.9104549614        8.1098455746      -13.4018886401
 H       -21.8126670027        6.3288279757      -13.6149752855
 H       -21.4595108324        7.4729003820       -9.8269936271
 H       -22.2681778507        6.4622143864      -10.9276395342
 H       -22.4671247595        8.2014019717      -11.1880902251
 H       -17.3265854641        4.6216971243      -12.9064927314
 H       -15.5713157417        4.5829874385      -13.2540308491
 H       -16.2052152986        5.8617116575      -12.3173526839
 H       -17.5724166831        2.0727517647      -10.8401638185
 H       -16.4669378711        1.8648636178      -12.1438261909
 H       -17.8877200271        2.7406821593      -12.4251936089
 H       -10.8572170082        7.5153212421      -14.1498537441
 H       -11.1342765628        7.3002866461      -12.5501003779
 H       -12.5228106459        7.1652837416      -13.4113031980
 H       -11.6596799922        4.1582323811      -15.3635305581
 H       -11.1297013633        5.7302075739      -15.8722529188
 H       -12.7004603641        5.5711337488      -15.1001054217
 H        -5.1184866450        1.7425152789      -10.6067650379
 H        -6.2209107467        2.7087407958       -9.6626960112
 H        -5.7182447261        3.0543758664      -11.5027437752
 H        -6.4221300675       -0.2624541498      -12.2674821529
 H        -5.9855099940        1.1350604796      -13.1622959645
 H        -7.6536359548        0.4626175484      -13.2418922389
 H       -13.0433573354       -0.4001618870      -10.4117855375
 H       -13.1026381482       -0.4443398194       -8.6384227830
 H       -13.2485234212       -1.9457274230       -9.6323314326
 H       -11.4277303744       -3.1697366186       -8.4673093017
 H       -11.0638983997       -1.9471227959       -7.2583025583
 H        -9.8469040032       -2.5129514572       -8.3870761574
 H       -10.3820964113       -2.9125591899      -15.7656729709
 H        -9.2826530539       -3.9245287999      -16.6431342372
 H        -8.6237476245       -2.8526400973      -15.5796151039
 H       -10.8212012042       -5.8543371277      -15.5406311916
 H        -9.7164584582       -6.5593860589      -14.2509994443
 H        -9.0201040227       -6.2731322607      -15.8056698857
 H        -3.6617157587       -4.8461337866      -15.5552415388
 H        -2.2643123512       -4.1286564464      -14.7622227980
 H        -3.7865631775       -3.6668774419      -14.1906847403
 H        -1.1827650188       -6.4891245606      -14.4897665338
 H        -2.5648392686       -6.9677673951      -15.4298641498
 H        -2.4096758818       -7.9175969600      -14.0393556421
 H        -1.1790868837       -4.5802458054       -8.0828853381
 H        -2.3626683532       -3.8072700861       -9.1036738262
 H        -1.5969562615       -2.7953672322       -7.8038536005
 H         0.0465163166       -1.2668438657      -10.5555632491
 H        -1.2467516456       -1.1573723524       -9.5151833929
 H        -1.6350039874       -1.8615446205      -10.9699546734
 H         4.6674041983       -7.1056408302       -7.0424028654
 H         3.6715721888       -6.1688277479       -5.8909655160
 H         5.2294464527       -6.8560006076       -5.3350882155
 H         5.2298037996       -3.0282453781       -5.8978722294
 H         5.5156681760       -4.3092072518       -4.6402553818
 H         3.8870643557       -4.0564477644       -5.2466762002
 H         8.1718575608       -3.5178349841      -11.1140720199
 H         9.8771076928       -3.0594237826      -11.6539131260
 H         9.3728180968       -2.8256883092       -9.9970667974
 H        11.2921847255       -6.1054213117      -11.8668231754
 H        10.9842413336       -4.6338474305      -12.5109567655
 H         9.7990577814       -5.8332796608      -12.6019618293
 H        15.1797060500       -7.7866200690       -5.4912043413
 H        14.9840156029       -6.1554430448       -5.9488684528
 H        14.9486804365       -7.3928406493       -7.2656206099
 H        12.4145183932       -9.4123016201       -5.4414489472
 H        13.4535031727       -9.3804829486       -6.9128839823
 H        11.8208699752       -8.8929636279       -7.0172821764
 H        11.5998624101       -2.8772718793       -0.8414457182
 H        12.3797660415       -4.4269126648       -1.1761385100
 H        10.7951802953       -4.2762386284       -0.4207966668
 H         8.7259505429       -3.4546250492       -1.9919736945
 H         9.1041669402       -3.0626197294       -3.6765020080
 H         9.4950216788       -1.9706747969       -2.3290393653
 Na       10.0354138234       -4.4018005729       -6.4474971284
 Na      -12.0788094278        1.8212379464      -10.9944643178
