232

 C        12.7866628371       -2.2374397204       -3.4427912523
 C        11.6080842990       -3.1256900315       -3.7446156342
 O        11.3495422370       -3.2271008319       -4.9045768471
 C        10.8098762623       -3.8913879364       -2.6366990247
 C        10.4514972397       -5.3651632245       -3.1027104764
 O         9.6144111056       -5.4066533941       -3.9681240646
 C        11.2147652278       -6.6111244980       -2.6788610885
 C        11.5505075354       -7.4195728738       -3.9686246037
 C        12.7343666294       -6.7324908269       -4.7031212944
 O        13.1547119306       -5.7191098027       -4.2271834504
 C        13.2119483209       -7.2774092339       -6.1234340763
 C        12.3562658242       -6.4506108440       -7.1591055318
 O        11.1586714752       -6.5153806770       -7.0480331083
 C        13.1122129224       -5.5857237178       -8.1388488429
 C        12.3674943820       -5.3383889491       -9.5023227675
 C        11.1014164207       -4.4891143634       -9.3807438520
 O        10.7946027570       -3.8118598058       -8.4232804141
 C        10.0989849661       -4.7630871214      -10.5348650045
 C         9.0105478932       -5.8951429434       -9.9427712362
 O         9.3468984689       -7.0740802552       -9.9077233167
 C         7.6532248034       -5.4796792376       -9.3958440573
 C         7.5295180492       -6.0955696358       -7.9727591906
 C         6.8721762957       -5.0087264233       -7.0705625149
 O         7.6012888637       -4.1011737357       -6.7427790390
 C         5.3162963360       -4.9805749660       -6.6540603010
 C         4.4599954315       -4.7667486532       -8.0016572603
 O         4.8656618791       -5.1444719202       -9.0752081140
 C         3.1136619714       -3.8720264416       -7.9857767418
 C         1.8976282367       -4.4198688239       -8.9047485656
 C         1.0283907943       -3.0517130967       -9.1150023931
 O         1.6182736545       -1.9874867442       -8.9443237835
 C        -0.4574785900       -3.2199015980       -9.6658174222
 C        -0.3010085310       -4.3114868221      -10.7428547617
 O         0.3165313626       -4.1287968847      -11.7279585435
 C        -1.0021307706       -5.6981345469      -10.5718495507
 C        -1.5306875219       -6.2338175556      -11.8299509226
 C        -2.8306790380       -5.5496984361      -12.3138123100
 O        -3.5036740664       -4.9325616013      -11.4892291516
 C        -3.3154032857       -5.7924060747      -13.7993365343
 C        -4.7899808617       -6.3274946175      -13.8346489634
 O        -5.0500553654       -7.2602171702      -14.5567319745
 C        -5.8995931455       -5.6083267218      -13.0635532645
 C        -7.2390096805       -5.7167208582      -13.8137545967
 C        -7.9505747222       -4.4180357446      -14.1756191802
 O        -7.3025909288       -3.3612936435      -14.3510665516
 C        -9.4349959156       -4.4625603327      -14.6583950109
 C       -10.3251468008       -4.1464894192      -13.3815603786
 O       -10.8684575029       -4.9177950818      -12.6730629931
 C       -10.5574435539       -2.5604670963      -12.9403905124
 C       -10.4826516064       -2.5128319477      -11.4195325747
 C       -10.8863006086       -1.2037881380      -10.8056687525
 O       -11.0410453228       -0.2658552730      -11.5652334956
 C       -11.1927292508       -0.9801986269       -9.2927081785
 C       -10.5292468770        0.2993765849       -8.8253270539
 O       -11.0252676064        1.3924175449       -9.0379317884
 C        -9.1170941291        0.3007318681       -8.1526149850
 C        -8.2278928452        1.2445775070       -8.9830307684
 C        -7.8781792955        0.6980669576      -10.4064024146
 O        -8.3461720962       -0.3802204209      -10.6729130894
 C        -7.1807320614        1.5941191049      -11.5438261501
 C        -8.2802726704        2.5568521536      -12.0456134969
 O        -9.2889894650        2.8677892831      -11.4548092319
 C        -7.8260303246        3.3739765219      -13.2947037438
 C        -9.0562792813        3.9724742770      -14.0706065998
 C        -9.6307359320        5.3151279292      -13.3945323556
 O        -8.9599505812        5.9943961858      -12.6077097257
 C       -11.2257714369        5.6246469961      -13.6634785332
 C       -11.9599947720        4.7035984337      -12.5348571056
 O       -11.7518529186        3.5033423022      -12.3949057032
 C       -12.9682072298        5.4878169025      -11.6229411680
 C       -13.7387002458        4.6196109898      -10.6758029768
 C       -14.7251096695        3.5284622705      -11.1569408635
 O       -14.3127775431        2.3975567326      -11.0689135157
 C       -16.1647347950        3.8620936556      -11.3909323775
 C       -16.7405908858        4.5432217632      -10.0726938215
 O       -16.0704747783        4.8923573895       -9.1116952275
 C       -18.2638319054        4.7456495038       -9.9423186457
 C       -18.7150510989        6.1452520419      -10.2488263690
 C       -19.5892468411        6.1668580169      -11.5461538163
 O       -19.3305005472        5.2851673717      -12.3117228377
 C       -20.5933846565        7.3885880379      -11.9504336350
 C       -19.7693256203        8.6684224290      -11.9686856410
 O       -18.5846314868        8.6042626153      -11.8906797977
 C       -20.4379045645       10.0976560033      -12.1814691105
 C       -21.1788560024        7.0755555090      -13.3017022136
 C       -21.7012683247        7.4809974293      -10.7817313639
 C       -16.2877698412        4.9778845646      -12.4347743719
 C       -16.9372431407        2.5956148644      -11.5609856786
 C       -11.5854438988        7.1703654694      -13.4789196877
 C       -11.7797414102        5.1605182482      -15.1137012815
 C        -5.8669025217        2.3910363126      -11.0222008727
 C        -6.7805462165        0.6021830037      -12.7436403384
 C       -12.7525071121       -0.8536807389       -9.2265651652
 C       -10.7902888852       -2.2490108809       -8.5133967677
 C        -9.6209807630       -3.5165166412      -15.9055647245
 C        -9.7789085513       -5.9357414800      -15.1611683907
 C        -3.2483190718       -4.3774098689      -14.5601644743
 C        -2.4612480558       -6.8637292919      -14.5115098702
 C        -1.5493487445       -3.6018166481       -8.5914206792
 C        -0.7980603749       -1.8414893326      -10.2798952073
 C         4.8180356117       -6.4311916817       -6.0165973549
 C         5.0933380900       -3.8749609855       -5.6302103876
 C         9.1752049720       -3.4830737608      -10.9068607214
 C        10.5900626668       -5.3895840591      -11.8361634705
 C        14.7618022072       -7.1053268707       -6.1394642056
 C        12.8504546459       -8.7839245733       -6.3323971214
 C        11.2804156114       -3.7127251206       -1.1715908456
 C         9.4981879975       -3.0050722750       -2.7089261533
 H        13.7531595486       -2.7357417856       -3.4241815601
 H        12.6079005155       -1.5800900686       -2.5036641968
 H        12.7344730492       -1.4689004310       -4.3019248255
 H        10.7547372680       -7.2811740631       -2.0048546058
 H        12.1286876928       -6.0547680564       -2.3271207164
 H        10.7974657532       -7.6156776877       -4.6735130222
 H        11.8793365590       -8.3807875636       -3.6266694417
 H        14.1742028890       -5.8602027986       -8.2935399050
 H        13.2135562205       -4.6351588857       -7.6662127440
 H        12.0693948067       -6.3159616249       -9.9508160943
 H        13.0347050185       -4.9114527701      -10.2725207281
 H         6.9761958511       -5.9235157470      -10.0435378109
 H         7.5224782625       -4.4031067534       -9.3363792915
 H         8.4960648871       -6.1707897193       -7.6147209224
 H         7.0796785030       -7.0961708472       -8.0954503012
 H         3.4647170135       -2.8896503263       -8.4154399111
 H         2.6392481633       -3.6052588672       -7.0412379826
 H         1.3631376877       -5.2925842983       -8.4353734155
 H         2.2503009071       -4.7518817911       -9.8801974693
 H        -1.8870579382       -5.5251576506       -9.8725747745
 H        -0.3411011679       -6.4403774842      -10.0488789686
 H        -1.7090701406       -7.2490837996      -11.7814283628
 H        -0.7956943773       -5.9973568447      -12.5740134829
 H        -5.6681253082       -4.5080789062      -12.9619967380
 H        -6.1459230050       -5.8584988771      -12.0393548203
 H        -7.8550107307       -6.4862627909      -13.2742061177
 H        -7.1671800468       -6.0179843016      -14.8681171192
 H       -11.5958891813       -2.3275398887      -13.2570759781
 H        -9.8395964537       -1.8586030712      -13.3284538488
 H        -9.5000980912       -2.7279636439      -11.0385942279
 H       -11.0621862217       -3.4337207393      -11.0995374222
 H        -8.6151551941       -0.6804712665       -8.1632533180
 H        -9.1556912314        0.6088019735       -7.1366672900
 H        -7.3193316075        1.4354549699       -8.4534546339
 H        -8.7262315257        2.2189452951       -9.0472525958
 H        -7.1946391780        2.6707899024      -13.9996189492
 H        -7.1869473145        4.2012808976      -13.0055957087
 H        -9.9526800230        3.3013770070      -13.9967562964
 H        -8.8499521914        4.2984881752      -15.0716305349
 H       -13.7418843132        5.9345136502      -12.2419038829
 H       -12.5307909952        6.2404434417      -10.9772048793
 H       -14.2509271124        5.1647791000       -9.9746172317
 H       -13.1543272701        3.9815756751      -10.0438956674
 H       -18.4080665301        4.5999385611       -8.8750008228
 H       -18.7827619591        3.9966627890      -10.4958369473
 H       -17.8117689225        6.5855501833      -10.7143725398
 H       -18.9584931097        6.7468790363       -9.3295372259
 H       -19.9559227290       10.6849210766      -12.9786921224
 H       -20.3719554936       10.5689448915      -11.2420565017
 H       -21.4662520300        9.9938260505      -12.3927082935
 H       -20.4705846057        7.3921937005      -14.1212691438
 H       -22.1161865525        7.7147078893      -13.4395605494
 H       -21.4133472807        6.0377123090      -13.3991025917
 H       -21.2877376946        7.4569618571       -9.8483686181
 H       -22.3375674897        6.6852602386      -10.9191193147
 H       -22.2611018952        8.4486830842      -10.9973023187
 H       -17.3124530817        5.0909001361      -12.6659880599
 H       -15.6517905291        4.7302808451      -13.2485522552
 H       -15.8674440991        5.8632738710      -12.0102222474
 H       -17.6096314668        2.3995757689      -10.7126419949
 H       -16.3540634789        1.6782415439      -11.6074997723
 H       -17.5447560885        2.5264948242      -12.4801916957
 H       -11.1083916048        7.7807089049      -14.2695023360
 H       -11.3054254632        7.6321861644      -12.5558758014
 H       -12.6318710517        7.2203546720      -13.4031244041
 H       -11.5383768890        4.1061929788      -15.2756134289
 H       -11.2017543769        5.7002640298      -15.9280195714
 H       -12.8232742265        5.3686241925      -15.2341018410
 H        -5.0653024234        1.6061207264      -10.8780607555
 H        -5.8342852056        2.9627853187      -10.0558735793
 H        -5.3892727897        2.8875548720      -11.9487851146
 H        -6.2765098622       -0.2232830540      -12.1797262350
 H        -5.9442428318        0.9391943392      -13.4125962889
 H        -7.5651299839        0.2374136660      -13.3372257406
 H       -13.1234814985       -0.1425542485       -9.9555103555
 H       -12.9971996723       -0.5691348711       -8.1368557386
 H       -13.1912507615       -1.7874089243       -9.5606665352
 H       -10.9923575011       -3.1947347099       -8.9730542008
 H       -11.3674102946       -2.2305765607       -7.5953956045
 H        -9.7574585901       -2.1786902957       -8.2713626923
 H       -10.6994477029       -3.2513697113      -16.1493170864
 H        -9.2274930893       -3.9651025001      -16.7833897725
 H        -9.0103470741       -2.6629146157      -15.7993712265
 H       -10.8138283823       -6.0199589064      -15.5241193991
 H        -9.6038492280       -6.7087670098      -14.3254263283
 H        -9.0332595178       -6.2506342108      -15.9493997834
 H        -3.5503216412       -4.3872720582      -15.5581665463
 H        -2.2071519436       -3.9915782259      -14.4604860903
 H        -3.8633139416       -3.6194758776      -14.0568272266
 H        -1.3918790146       -6.6409045817      -14.7322794678
 H        -2.9295267115       -7.1272399280      -15.4265181843
 H        -2.6113665322       -7.7514495854      -13.9236367552
 H        -1.2537730340       -4.4558287590       -8.0227654796
 H        -2.5464311552       -3.8445553631       -8.9482051738
 H        -1.5788381581       -2.7236383673       -7.9575663738
 H         0.1000459505       -1.4073679818      -10.5747026156
 H        -1.0378755368       -1.1186135565       -9.4664360562
 H        -1.6051405390       -1.8359111247      -10.9961556832
 H         5.0746162104       -7.2173348010       -6.6687302109
 H         3.7355381333       -6.2823512312       -6.0361732931
 H         5.1511934838       -6.5178449472       -4.9291714115
 H         5.6421737335       -2.9621047080       -5.9306847993
 H         5.5505308686       -4.3238350303       -4.6700995567
 H         4.0239027322       -3.7142367282       -5.4085981770
 H         8.1106317341       -3.7501697628      -11.1790243681
 H         9.6923904379       -2.9701711350      -11.6951034742
 H         9.1335578526       -2.7994409864      -10.0177445884
 H        11.3376395978       -6.1313495450      -11.6127946431
 H        11.2077526094       -4.8129990440      -12.4869982055
 H         9.8943533759       -5.9268628613      -12.5301414463
 H        15.2130643171       -8.0034959642       -5.7453307138
 H        15.1328706318       -6.3162121488       -5.4487789394
 H        15.2042952963       -6.9021351612       -7.1637020655
 H        12.5447861326       -9.3891391902       -5.4514562897
 H        13.6456595391       -9.3186468569       -6.8439190836
 H        11.9897980067       -8.8256800019       -7.0635608891
 H        11.2376583521       -2.6897497256       -0.8206249547
 H        12.2254187517       -4.1399206475       -0.9212244556
 H        10.5852047558       -4.2280535477       -0.4702008565
 H         8.8687525040       -3.3874011031       -1.8516958973
 H         8.9411473434       -2.9198616348       -3.6533322177
 H         9.7264113903       -2.0147505773       -2.3574784103
 Na        9.8382518028       -4.4329905262       -6.2672803138
 Na      -12.0384662923        1.5212499696      -10.9815124668
