232

 C        12.8744958519       -2.2665123189       -3.2421538890
 C        11.6695698197       -3.1154875949       -3.7816236245
 O        11.3282028690       -3.1856134646       -4.9191018754
 C        10.7041630272       -3.7893668952       -2.6322801900
 C        10.5912470684       -5.2643299955       -3.2030549814
 O         9.7306453209       -5.6272583044       -3.9940652456
 C        11.3743423574       -6.6360774340       -2.7205423622
 C        11.7060907342       -7.4553119011       -3.9344242368
 C        12.7769082415       -6.6961395119       -4.7357955669
 O        13.3018971430       -5.7057337596       -4.2199107870
 C        13.2748674484       -7.3003790234       -6.0953179542
 C        12.4273551182       -6.3815578686       -7.0813248742
 O        11.2098707519       -6.5943570574       -7.0340468282
 C        13.0899436833       -5.3884077995       -8.0850956315
 C        12.3774686049       -5.2644998346       -9.4443464583
 C        11.0218398265       -4.5531445665       -9.4038523693
 O        10.7322086567       -3.8927028905       -8.3934333349
 C        10.0345633887       -4.7813135198      -10.5412794149
 C         9.0347706332       -5.8351686227       -9.9780961634
 O         9.4234569938       -6.9584995307      -10.1356445774
 C         7.6668366570       -5.5742713106       -9.4158539327
 C         7.4645268929       -6.2001544573       -7.9234426333
 C         6.8942240369       -5.0328397035       -7.1203600021
 O         7.6206299806       -4.1572574969       -6.6940552221
 C         5.3409640230       -4.8923212345       -6.7170832927
 C         4.3862991557       -4.7335947228       -7.9899413471
 O         4.6227722554       -5.2903179101       -9.0629330300
 C         3.1265708931       -3.9487353858       -7.7811207783
 C         1.9548096251       -4.3383164291       -8.7503626646
 C         1.0348057240       -3.1450687932       -9.1014479553
 O         1.4966707780       -2.0467607100       -9.0487328234
 C        -0.3472105616       -3.2518680517       -9.6365997872
 C        -0.4991132075       -4.3639625639      -10.8089323356
 O         0.1414041415       -4.1611271519      -11.8154478383
 C        -1.1327599444       -5.6875775321      -10.5374161029
 C        -1.7064085014       -6.2561677996      -11.8171957937
 C        -3.0032188936       -5.5675443658      -12.3726342298
 O        -3.7205528147       -4.9251158939      -11.6026444929
 C        -3.3507325859       -5.7887184979      -13.8327352641
 C        -4.8338891739       -6.2945238137      -13.8805123413
 O        -5.0653962758       -7.3306226921      -14.4703818114
 C        -5.9106783180       -5.5563330703      -13.1455091498
 C        -7.2384199425       -5.7084621851      -13.8626507197
 C        -7.9482485141       -4.3605862124      -14.3684224787
 O        -7.4731111642       -3.2607552170      -14.2189095207
 C        -9.4946967839       -4.4473161799      -14.6873800193
 C       -10.3734683518       -4.0476574328      -13.4664836473
 O       -10.7435552109       -4.9784160383      -12.7525765951
 C       -10.4586171500       -2.5805268601      -12.9845899162
 C       -10.4465186720       -2.5303865266      -11.4242125140
 C       -10.8936161945       -1.1354557853      -10.8952056162
 O       -11.0702929148       -0.2096775328      -11.6906703886
 C       -11.1999145296       -0.9888324935       -9.2895359698
 C       -10.4875174099        0.3952753936       -8.8746499518
 O       -11.0031016516        1.4568301823       -9.0635606807
 C        -9.0788193712        0.3310173229       -8.2552671264
 C        -8.0877680195        1.2110758628       -8.9958787383
 C        -7.9695793758        0.7483573657      -10.4849980045
 O        -8.5068023894       -0.3327548896      -10.8330106435
 C        -7.1587721699        1.4930623025      -11.5424476039
 C        -8.2701501951        2.6089710194      -12.0853218868
 O        -9.3317093677        2.6373945010      -11.5619430855
 C        -7.9201832677        3.5060430406      -13.3182251798
 C        -9.1218837113        4.0466644499      -14.0495425058
 C        -9.6793526998        5.3163139586      -13.4166305998
 O        -9.0281261168        6.0997522593      -12.8212994717
 C       -11.2175127993        5.6326769478      -13.5360233570
 C       -11.9377781183        4.8109536271      -12.4559464029
 O       -11.7394318275        3.6174940926      -12.3546776259
 C       -13.0289008079        5.5045783378      -11.6842992094
 C       -13.5828741811        4.6392268004      -10.5775298767
 C       -14.5963612637        3.4735998640      -10.9976268409
 O       -14.3006962852        2.2610998194      -10.9004851999
 C       -16.1397010402        3.8443879955      -11.2723564784
 C       -16.7540256616        4.5320546583       -9.9309159072
 O       -15.9810159485        5.0061975657       -9.1104943901
 C       -18.2973870714        4.7156770582       -9.8533565804
 C       -18.7053652940        6.1176447739      -10.2641955730
 C       -19.5148743330        6.1013928491      -11.5421172515
 O       -19.5826393059        5.2023484099      -12.4022376231
 C       -20.5562639216        7.2974696490      -11.8647933097
 C       -19.6319193007        8.6079840304      -11.9504743200
 O       -18.4261090988        8.5582294848      -11.8378183075
 C       -20.3694887823        9.9390220366      -12.1305066167
 C       -21.2137987845        6.9600318984      -13.1897441120
 C       -21.6036792112        7.5135713329      -10.7485078044
 C       -16.2591292715        5.0803584204      -12.4357317981
 C       -16.8438474113        2.4989952185      -11.6406285451
 C       -11.4827217867        7.1431056940      -13.5179464222
 C       -11.6742478388        5.1368763711      -14.8692376704
 C        -5.9693396257        2.2958518533      -11.2624587717
 C        -6.7736835242        0.5641540299      -12.6729138411
 C       -12.7621312284       -0.8192638076       -8.9137086588
 C       -10.7234106891       -2.2618406200       -8.5450700391
 C        -9.8169127271       -3.5417435004      -15.9170538745
 C        -9.9185541628       -5.9426751759      -15.1391102674
 C        -3.2481868814       -4.3901284135      -14.4424714015
 C        -2.5491865021       -6.7315197728      -14.6539602175
 C        -1.4576602128       -3.4463300767       -8.5610895851
 C        -0.7908380848       -1.9242755739      -10.3546127276
 C         5.0557400473       -6.2380550598       -6.0490989802
 C         5.2803667625       -3.7768018814       -5.7004946460
 C         9.2547031172       -3.4730998611      -10.9854057912
 C        10.6671047077       -5.3501589648      -11.7488398014
 C        14.8294349947       -7.0278617822       -6.0696720738
 C        13.0075874376       -8.7513186420       -6.3138403107
 C        11.3148845662       -3.6775405716       -1.2394299992
 C         9.3671602918       -3.0024132587       -2.7251695390
 H        13.7870102258       -2.8120572386       -3.3167048723
 H        12.6501770951       -2.0191883108       -2.1754726118
 H        12.9788526800       -1.3012802202       -3.7297447650
 H        10.5463306713       -7.1873527340       -2.2224257013
 H        12.2473533107       -6.3839059540       -2.0637976568
 H        10.8356899563       -7.5236957698       -4.6344731844
 H        11.9589280948       -8.4724663336       -3.7520319323
 H        14.0871403804       -5.7175872051       -8.2702612022
 H        13.2336067962       -4.4022170516       -7.6906847037
 H        12.3126547902       -6.2701511507       -9.8954091512
 H        13.0716678341       -4.6770481570      -10.1747560784
 H         7.0150670853       -6.1091220111      -10.1098441386
 H         7.4520867684       -4.5263070258       -9.4014181608
 H         8.4617093559       -6.4090664165       -7.4940635882
 H         6.8939240923       -7.1173726846       -8.0282310528
 H         3.4223431001       -2.9013005081       -7.8425415120
 H         2.7407890060       -4.1140239155       -6.7638979126
 H         1.4619373185       -5.2498647026       -8.3373748547
 H         2.3881764993       -4.7016478752       -9.6843929698
 H        -1.9695101578       -5.4215445743       -9.7919398782
 H        -0.4186901026       -6.3336642077       -9.9908011426
 H        -1.9306341033       -7.3288803594      -11.7733311793
 H        -0.9680657616       -6.0753860789      -12.5268589465
 H        -5.6818185399       -4.4414700772      -12.8730714054
 H        -6.1364898949       -5.9786700206      -12.1153270243
 H        -7.9071623026       -6.2095585196      -13.1751050895
 H        -7.1826665018       -6.3695054158      -14.7603797437
 H       -11.4341000446       -2.2200760873      -13.3461825869
 H        -9.6436884756       -2.0011497015      -13.3410802763
 H        -9.5207883883       -2.8287940185      -10.9190358119
 H       -11.1340398966       -3.3206401460      -11.1544131008
 H        -8.6722990105       -0.6623772859       -8.1935654285
 H        -9.2119704988        0.6697443262       -7.1847269112
 H        -7.1405736812        1.2335557576       -8.4661572100
 H        -8.5138620650        2.2595118891       -9.0190143930
 H        -7.5169456225        2.7537063041      -14.0369873728
 H        -7.2001696475        4.3074802632      -13.2413681644
 H        -9.9076847457        3.3685312793      -14.0661139442
 H        -8.7863968434        4.4051621438      -14.9951026185
 H       -13.8453868649        5.9303470766      -12.2491536873
 H       -12.5892242548        6.2914823598      -11.1147057592
 H       -14.1822890245        5.2452091329       -9.9782158640
 H       -12.9073704916        4.1687267510       -9.8933007003
 H       -18.6168484108        4.5515648847       -8.8267049227
 H       -18.7640592820        3.9569844031      -10.4968909139
 H       -17.8515696323        6.7801363092      -10.3802683963
 H       -19.3812958616        6.5650344381       -9.4948127862
 H       -19.9966209811       10.4632110642      -12.9924422985
 H       -20.2698264944       10.5452000946      -11.1986778594
 H       -21.3961235004        9.7081328129      -12.3032770004
 H       -20.4928198324        7.1675520108      -13.9658383818
 H       -22.1354112525        7.4304259657      -13.4750881732
 H       -21.2547400586        5.8152243183      -13.1652712156
 H       -21.1342653527        7.5582550293       -9.7466089851
 H       -22.4201213154        6.7520870578      -10.8722481387
 H       -22.0097123715        8.4596365210      -10.9319629033
 H       -17.2835905766        5.4229690605      -12.5008424098
 H       -15.8880260033        4.6289200925      -13.3582818476
 H       -15.5959427062        5.8866328765      -12.1985854938
 H       -17.6779359696        2.2828448900      -10.9431474197
 H       -16.3292610459        1.5762401616      -11.6997875588
 H       -17.3462618840        2.6065102471      -12.6285029001
 H       -10.9411608577        7.5946209611      -14.3749532388
 H       -11.1880154739        7.6776854997      -12.5953893030
 H       -12.5585432731        7.3220966929      -13.5404190059
 H       -11.3793449593        4.0647642477      -14.9819515606
 H       -11.1418742081        5.6806853053      -15.6216462786
 H       -12.7875466933        5.2669289595      -15.0727723878
 H        -5.0801512908        1.7086967743      -10.7661049308
 H        -6.1592654211        3.0602549101      -10.6125057758
 H        -5.4973840266        2.5936817721      -12.2136597856
 H        -6.0539650738       -0.2017645305      -12.3121505991
 H        -6.2071515799        1.0566695652      -13.4519836757
 H        -7.6863447681        0.1252170377      -13.2013520233
 H       -13.0864215210        0.1327461294       -9.3505650701
 H       -12.7928432314       -0.7961679854       -7.7754595547
 H       -13.4044416224       -1.5443706726       -9.3874742090
 H       -10.9449321813       -3.2640562482       -9.0308798618
 H       -11.2647437504       -2.3270314159       -7.6507351689
 H        -9.6281462953       -2.1787977528       -8.3478069970
 H       -10.8631966999       -3.7396606906      -16.2577806968
 H        -9.2045862948       -3.7297013891      -16.8234928522
 H        -9.6589186811       -2.4797943903      -15.6998905289
 H       -10.9129031359       -5.9909321288      -15.5375365426
 H        -9.8497472707       -6.7274761801      -14.3401018562
 H        -9.1896191569       -6.2527171178      -15.8856085764
 H        -3.5267489734       -4.3123536316      -15.4926156983
 H        -2.2303683545       -3.9974577092      -14.2698692891
 H        -3.9525877959       -3.6966347752      -13.9625086849
 H        -1.6356109774       -6.4268073270      -14.8959051320
 H        -3.1154110274       -7.0371758646      -15.5735742197
 H        -2.4904682964       -7.6216784538      -14.0784813701
 H        -1.2314215482       -4.4026295930       -8.0588135662
 H        -2.4346191542       -3.5922078036       -8.9281357269
 H        -1.4196374040       -2.6601860882       -7.9151726561
 H        -0.0473663322       -1.5960346067      -11.1047321593
 H        -0.7975504468       -0.9560961463       -9.7506853304
 H        -1.7612442741       -2.2144974773      -10.7488616290
 H         5.5761882631       -7.0776572153       -6.5357036299
 H         3.9599901119       -6.4322156562       -6.0466728544
 H         5.3580806860       -5.9976342759       -5.0268765588
 H         5.8059738677       -2.8787196568       -6.1860219366
 H         5.7416762634       -4.0478215125       -4.7665834615
 H         4.2020999689       -3.5404517799       -5.4952802635
 H         8.4077394128       -3.7115519035      -11.6182181592
 H         9.9823577026       -2.7587843759      -11.3927721463
 H         8.8290574799       -3.0432223864      -10.0344455322
 H        11.1691368986       -6.2788140332      -11.5616716509
 H        11.6056347389       -4.8045804673      -12.0760467949
 H        10.0861014338       -5.4869837470      -12.6572650121
 H        15.3773319583       -7.9446154496       -5.7139976841
 H        15.1486288383       -6.2152045801       -5.4202752026
 H        15.1993164200       -6.8127094764       -7.0511709032
 H        13.0694230716       -9.3738659485       -5.3983004776
 H        13.7424036815       -9.2031677190       -7.0145956221
 H        12.0078052299       -8.8969744297       -6.7383360033
 H        11.3181105549       -2.6946683602       -0.8076126019
 H        12.2587167907       -4.1907162667       -1.1499642706
 H        10.7259025075       -4.2761173074       -0.4747466890
 H         8.7276306475       -3.2591370108       -1.8735875719
 H         8.8355372704       -3.1005925993       -3.6915839479
 H         9.5757586624       -1.9109661852       -2.5886920537
 Na        9.7071778274       -4.4950419911       -6.0961480683
 Na      -12.0870611038        1.5213003713      -11.0245761328
