232

 C        12.9972221491       -2.4512828744       -3.2149355344
 C        11.7333410525       -3.1979566907       -3.7902798445
 O        11.3730453249       -3.0370008823       -4.9604605472
 C        10.7440064677       -3.9227783523       -2.7399013741
 C        10.5989747525       -5.3887808914       -3.3240431781
 O         9.7555199016       -5.6549820999       -4.1347487746
 C        11.4663160775       -6.4376581525       -2.6323935290
 C        12.0266354019       -7.3266601469       -3.7172556692
 C        13.0772924745       -6.5978843600       -4.5834531601
 O        13.4985651156       -5.5532642191       -4.1722446325
 C        13.4754335894       -7.1678425590       -6.0245493978
 C        12.5267176437       -6.2486433992       -6.9253012209
 O        11.3640242322       -6.5104960257       -6.9253443228
 C        13.0392311394       -5.1222865782       -7.8313490598
 C        12.3093078393       -5.1268543192       -9.1836151450
 C        10.8983367043       -4.5862539300       -9.2519869581
 O        10.3369439924       -4.0942878011       -8.3291987223
 C        10.0922323426       -4.7684966061      -10.5724429184
 C         9.1234583257       -5.9825017023      -10.1806324998
 O         9.3783854891       -7.1794012034      -10.2872519361
 C         7.7100911809       -5.5992297429       -9.6409191342
 C         7.4081113889       -6.0476455764       -8.2280273532
 C         6.9710497144       -4.9652635512       -7.1963917901
 O         7.8236271242       -4.2952339198       -6.6719690881
 C         5.3749165501       -4.8059265287       -6.7016267662
 C         4.2843455965       -4.9057230194       -7.8258646508
 O         4.4304555055       -5.5028006650       -8.8388284240
 C         2.8829560777       -4.1111022234       -7.5532584263
 C         1.7646623440       -4.3069338784       -8.6386977262
 C         1.0834849984       -3.0053626670       -9.1216303827
 O         1.6415115373       -1.9184270916       -9.0019864160
 C        -0.3167333766       -3.2316081945       -9.7407717860
 C        -0.6079135879       -4.4386490474      -10.7897058953
 O        -0.2402905634       -4.3771570207      -11.9366992661
 C        -1.5469331298       -5.7093897040      -10.4688776245
 C        -1.9380581542       -6.4967432014      -11.8127828449
 C        -3.0929244792       -5.6581494685      -12.4122000578
 O        -3.8456758516       -5.0328067017      -11.6816157797
 C        -3.5031512411       -5.6644555320      -13.9744633978
 C        -4.9868022614       -6.2925366032      -13.9869227588
 O        -5.2880950111       -7.4165540859      -14.3294846256
 C        -6.0349648672       -5.3339684044      -13.4674705941
 C        -7.4658337492       -5.6787463450      -13.9774197121
 C        -8.1849948377       -4.3624594785      -14.3393416771
 O        -7.7183989875       -3.2274136953      -14.1680575188
 C        -9.7927898878       -4.4430489544      -14.7867974343
 C       -10.4019524015       -4.0931391788      -13.4239945903
 O       -10.6573597097       -4.9738735842      -12.6616671538
 C       -10.2500360222       -2.5875042569      -12.9359518691
 C       -10.5124053645       -2.5427398558      -11.4389850935
 C       -11.0204478535       -1.1680790146      -10.9722997631
 O       -11.5210655339       -0.2933987728      -11.6571191524
 C       -11.0748655486       -0.9763615205       -9.4338779805
 C       -10.2755889333        0.3711381203       -9.0386519700
 O       -10.8858438078        1.4496741449       -9.1796399089
 C        -8.8822238605        0.3800598720       -8.3101159853
 C        -7.9173234697        1.2115356307       -9.2022943933
 C        -7.9488756446        0.6768512842      -10.5903664476
 O        -8.6323263412       -0.2394687693      -10.8952749289
 C        -7.2976237153        1.4072884521      -11.6782556652
 C        -8.3043223510        2.4397946364      -12.2309667677
 O        -9.4697839876        2.3446842807      -11.9103001663
 C        -7.8731854420        3.5257158613      -13.2200850392
 C        -9.1409161303        4.0680478186      -14.0114496132
 C        -9.6866875880        5.4342796520      -13.5789428974
 O        -8.8954819158        6.2040871666      -13.0234311442
 C       -11.2249791678        5.7113847525      -13.5711934425
 C       -12.0143162492        4.8798742113      -12.4320024907
 O       -11.7182897371        3.7013565829      -12.3730139965
 C       -12.9951609017        5.4732664870      -11.4906892111
 C       -13.5193835063        4.5563734146      -10.3281508819
 C       -14.5410086015        3.4594407442      -10.7341608148
 O       -14.2408999978        2.3001864413      -10.7018762650
 C       -16.0915052371        3.8948812771      -11.1560163567
 C       -16.7338211294        4.5249015128       -9.8081388831
 O       -16.0445331213        5.1596747427       -9.0229054934
 C       -18.2764023119        4.4524296719       -9.7338418988
 C       -18.8180761745        5.9281996754      -10.1447744135
 C       -19.6575775829        5.8481876634      -11.5595953341
 O       -19.5879645030        4.8327138599      -12.1861406120
 C       -20.4296943810        7.1675333472      -11.8357471414
 C       -19.5222308831        8.4995651137      -11.9867239629
 O       -18.3509185289        8.3666511139      -11.7794340825
 C       -20.1966580713        9.8735892610      -12.2018337833
 C       -21.3308318159        7.1657867307      -13.1040255377
 C       -21.4043791325        7.4207774754      -10.5575608610
 C       -16.1052074822        5.0260786467      -12.2738351438
 C       -16.7606607172        2.5159357517      -11.6133999667
 C       -11.4159606450        7.2442714304      -13.4385308913
 C       -11.8181947698        5.0895823212      -14.8984034122
 C        -6.1093007218        2.2067071938      -11.1771290049
 C        -6.8562711838        0.3782179626      -12.9354219280
 C       -12.5458729537       -0.7290458610       -8.9767519492
 C       -10.4459501849       -2.1706028876       -8.5965214828
 C       -10.0635178668       -3.4150289108      -15.9404074209
 C       -10.0810440970       -5.8493150902      -15.2587541373
 C        -3.3985205967       -4.2206333197      -14.4526161118
 C        -2.5309275743       -6.5043707582      -14.7363585649
 C        -1.1142270198       -3.4362479559       -8.4488987282
 C        -0.7793977778       -1.9768460314      -10.4875021913
 C         5.0518539005       -6.0693957782       -5.8340526656
 C         5.2604206146       -3.4657098160       -5.9742142147
 C         9.4861429747       -3.3972782930      -10.7968327691
 C        10.9340074259       -5.0900998709      -11.8149899222
 C        14.9635999376       -6.8528335216       -6.3232250214
 C        13.1975503009       -8.6891723539       -6.2663278325
 C        11.2414634710       -3.9473272797       -1.2186557633
 C         9.2243870934       -3.2693635133       -2.7788847516
 H        13.8349074515       -3.0779924433       -3.0635499257
 H        12.6592791878       -2.0130237741       -2.2656030341
 H        13.3207303230       -1.7208301003       -3.9472349519
 H        10.7431724678       -6.8482949057       -1.9479652323
 H        12.2612329307       -5.8888950058       -2.1524473682
 H        11.3465755422       -7.9567974481       -4.3051704745
 H        12.7161507586       -8.1117555523       -3.2139661777
 H        14.1560035280       -5.2238466754       -8.0253067370
 H        12.9471680775       -4.1335662813       -7.3207301097
 H        12.3339627316       -6.1902290993       -9.4752789460
 H        12.8555210719       -4.5956974500       -9.9071856021
 H         6.9571227945       -6.0428139343      -10.3231057327
 H         7.6565636974       -4.4680195562       -9.6694978739
 H         8.3465457796       -6.3958059943       -7.7668488075
 H         6.7388391703       -6.9441067085       -8.3329600027
 H         3.0575398556       -3.0249873500       -7.5002619759
 H         2.5558316697       -4.4659372170       -6.5761460384
 H         0.9954456401       -4.9927508152       -8.2976474479
 H         2.2048569638       -4.9158711413       -9.4539117899
 H        -2.4182763062       -5.5616184258       -9.9031410268
 H        -0.8647421241       -6.3886439141       -9.9729912609
 H        -2.4580056061       -7.4318387408      -11.4864650857
 H        -1.0471300328       -6.6995058689      -12.5566903461
 H        -5.8090140278       -4.3810077333      -13.8034999212
 H        -5.9541276037       -5.2436277230      -12.4196621142
 H        -8.2085453852       -5.9693424084      -13.2015995052
 H        -7.3880226943       -6.4816804305      -14.6916521221
 H       -10.8868120728       -1.9055277199      -13.4987001101
 H        -9.1968853201       -2.2438842297      -12.9408652736
 H        -9.7529028424       -2.9958923689      -10.8319980942
 H       -11.4009775105       -3.1972022692      -11.3083409795
 H        -8.4250734933       -0.6267963032       -8.1145248671
 H        -9.0165923863        0.8423965890       -7.3509556931
 H        -6.8770555837        1.0122093014       -8.7845692306
 H        -8.1363368527        2.2834386815       -9.2060074206
 H        -7.2378896615        3.1194930460      -14.0176863496
 H        -7.2874697751        4.2984583610      -12.7309323827
 H       -10.0303538016        3.3892715617      -13.7064304151
 H        -8.8233473260        4.0994119600      -15.0811146727
 H       -13.8464564979        5.7493761562      -12.1468045426
 H       -12.6669484210        6.4334115756      -11.0041477521
 H       -14.1040022156        5.1573003464       -9.5287699531
 H       -12.7851423552        3.9321535195       -9.7420744377
 H       -18.6512896619        4.0625927638       -8.7576568649
 H       -18.6418844349        3.7706279155      -10.5226495208
 H       -17.9568357890        6.5661733923      -10.3838252310
 H       -19.2819378385        6.4461302250       -9.3347644184
 H       -19.5441454815       10.4040502034      -12.9650391603
 H       -20.0020477717       10.3629788981      -11.2523270997
 H       -21.2637805391        9.8683080195      -12.5267730915
 H       -20.8642780361        6.8862436522      -14.0568502175
 H       -21.6296995315        8.2178968247      -13.2322947720
 H       -22.0921692656        6.4933129922      -12.9590453675
 H       -20.8075824519        7.8217439695       -9.7435255589
 H       -21.8010127878        6.4450125597      -10.3886536386
 H       -22.2860389799        8.1996406821      -10.7236131843
 H       -17.1196387544        4.9212961689      -12.6988700586
 H       -15.3222367059        4.8643685937      -13.0411133877
 H       -16.0384742807        6.0138854072      -11.7367204322
 H       -17.3169080758        1.9527374271      -10.8898513476
 H       -15.8976474531        1.8430282833      -11.7870284901
 H       -17.3568971606        2.4785433822      -12.4930156180
 H       -10.7971506082        7.7197832497      -14.2388192519
 H       -11.1981262932        7.6708934469      -12.4494723234
 H       -12.4579002521        7.5546510547      -13.7096848892
 H       -12.0792953739        4.0525425992      -14.7916856972
 H       -11.1876712124        5.2844889696      -15.8169273221
 H       -12.7149472420        5.6029050374      -15.1047703561
 H        -5.4406028681        1.6673048621      -10.5932029437
 H        -6.5578439865        3.0212922348      -10.5893134052
 H        -5.4645898921        2.5527721911      -11.9544799272
 H        -5.8578282612        0.0119606960      -12.7743975024
 H        -6.7397010951        0.9819056685      -13.8593835468
 H        -7.5496711492       -0.3405333567      -13.1825521069
 H       -12.9845609154        0.1836395932       -9.3055284095
 H       -12.5590586974       -0.8327722836       -7.8950299080
 H       -13.1634179724       -1.5303947466       -9.4106428645
 H       -11.2583303339       -2.8145691420       -8.3415179409
 H       -10.0027145288       -1.9527376674       -7.5685692834
 H        -9.7546403325       -2.7293977150       -9.1675046547
 H       -10.9052443478       -3.6894935971      -16.6046654887
 H        -9.2701424792       -3.3951893847      -16.6786918306
 H       -10.1880341733       -2.3902731040      -15.5749443297
 H       -11.1211328752       -5.9560020269      -15.5413347495
 H       -10.0660991621       -6.5388868554      -14.4446608762
 H        -9.4663658585       -6.2085420282      -16.0478334187
 H        -3.7145355735       -4.0087599345      -15.4787182244
 H        -2.3148769092       -4.0175873574      -14.4030006230
 H        -4.0179158619       -3.4987464571      -13.9000180181
 H        -1.4757829098       -6.0511537607      -14.4443826462
 H        -2.6184159674       -6.5210458851      -15.7944440192
 H        -2.4291391768       -7.5308852825      -14.2874108780
 H        -1.0232354672       -4.4237588846       -8.0618426612
 H        -2.1876297033       -3.3763883163       -8.7617012186
 H        -0.9408420200       -2.6264757236       -7.6655076009
 H        -0.5341612125       -2.1027533692      -11.5312642138
 H        -0.0946436135       -1.1816785401      -10.3120228197
 H        -1.8739863268       -1.7945639514      -10.3765293350
 H         4.9518831045       -6.8589296528       -6.5456917259
 H         4.0853855276       -5.9272427879       -5.3734979800
 H         5.7613284966       -6.1654531927       -4.9978202693
 H         5.1545189563       -2.6179028046       -6.5545150298
 H         6.2264940037       -3.4698214518       -5.4201701993
 H         4.4454326558       -3.5825695522       -5.3086352728
 H         9.0618183251       -3.4680145167      -11.7940928940
 H        10.2762675361       -2.6906406852      -10.6920542282
 H         8.6901244102       -3.1590824677      -10.1532381088
 H        11.0023092183       -6.1499232140      -12.0661818203
 H        11.9544152294       -4.9176458866      -11.8807105022
 H        10.4563901235       -4.6410252726      -12.6826988856
 H        15.5105253544       -7.2021992130       -5.5100354354
 H        15.2039789048       -5.8055111141       -6.4918019181
 H        15.3491881330       -7.4395155330       -7.1747321898
 H        14.0863500182       -9.2393456962       -6.0300211773
 H        13.0781538656       -8.9633891299       -7.2757237823
 H        12.3998382556       -9.0788946044       -5.6367340237
 H        11.0924414283       -2.9652239076       -0.7376087418
 H        12.2864581120       -4.2502929480       -1.0933855850
 H        10.8179998663       -4.6811845083       -0.5774555823
 H         8.6188938354       -3.7586452063       -2.0035054948
 H         8.7524442981       -3.4044045163       -3.7380969539
 H         9.2260721681       -2.2253575786       -2.6270411257
 Na       10.0294882554       -4.5833860080       -6.0840557493
 Na      -12.0686206805        2.0050246149      -11.1296706078
