232

 C        12.9530439590       -2.6698460934       -3.1214332262
 C        11.7219481984       -3.3167114021       -3.6518174719
 O        11.4071854819       -3.1550586898       -4.8417867485
 C        10.7503677716       -4.0794416647       -2.7427652297
 C        10.7788282591       -5.5302949332       -3.1623983230
 O        10.2131121705       -5.9327322091       -4.1564917310
 C        11.7317348952       -6.5086952190       -2.4450439432
 C        12.4919108104       -7.2106659040       -3.5972948459
 C        13.5043713808       -6.4530115025       -4.4825217451
 O        13.9736900973       -5.4022096262       -4.1454720027
 C        13.7584822718       -6.9254428872       -5.9614985365
 C        12.5920696921       -6.2236227311       -6.6828001378
 O        11.4950593038       -6.6251041302       -6.3690225583
 C        12.7741361657       -4.8035549208       -7.5042267835
 C        12.3359097755       -4.9679525850       -8.9906733951
 C        10.7826259066       -4.5325582051       -9.1763368977
 O        10.0451630925       -4.2768460090       -8.2714364428
 C        10.0987462404       -4.6286993218      -10.6475182565
 C         8.9753525316       -5.7152371331      -10.3251360812
 O         9.1380910167       -6.8918602840      -10.6029766087
 C         7.5982648108       -5.3332717374       -9.8468950378
 C         7.0337604017       -5.9514079953       -8.5146586778
 C         6.8962455716       -4.9786331599       -7.3054469196
 O         7.8283004120       -4.5092207727       -6.6950056325
 C         5.4170319618       -4.7097775478       -6.7733555279
 C         4.2241598809       -5.0765769753       -7.7824702713
 O         4.3679360387       -5.8312520056       -8.6866248759
 C         2.9069005365       -4.2728977931       -7.7902576308
 C         1.8530252209       -4.6665293923       -8.8924183453
 C         1.0716781959       -3.4200459010       -9.3070869421
 O         1.7129800886       -2.3782441432       -9.2990806144
 C        -0.4569399870       -3.3215039723       -9.6475938462
 C        -0.6145939340       -4.4619436938      -10.7550693519
 O        -0.1162948554       -4.3550197334      -11.8807057726
 C        -1.7146961278       -5.6587553392      -10.4325897942
 C        -2.2280505824       -6.4580181074      -11.6292748250
 C        -3.3547894253       -5.5102567383      -12.2802542463
 O        -4.1015389551       -4.8507643422      -11.5985280973
 C        -3.5781083091       -5.5733385014      -13.8693048036
 C        -5.0861903144       -6.2038754634      -14.1067892895
 O        -5.2702796555       -7.3728433506      -14.3752628209
 C        -6.1418890236       -5.0978981878      -13.8555233778
 C        -7.5674665885       -5.4807576345      -14.2611052343
 C        -8.3990996051       -4.2980536269      -14.5962927516
 O        -7.8154104205       -3.2443920807      -14.6432260290
 C        -9.9520444726       -4.3206084632      -14.8458641632
 C       -10.6639114330       -4.0712157588      -13.3823806942
 O       -10.8886633976       -5.0253696163      -12.6650198535
 C       -10.9659810479       -2.6093730866      -12.9611273049
 C       -10.8304402494       -2.4907730138      -11.4039433220
 C       -11.3193207197       -1.1282568389      -10.8374151194
 O       -11.7586994969       -0.3146095583      -11.5882861209
 C       -11.1052695659       -0.8745336251       -9.1709770501
 C       -10.1507451815        0.3873420828       -9.0479720361
 O       -10.5044320485        1.5427623858       -9.3534230179
 C        -8.7753312454        0.4363732491       -8.3431419867
 C        -7.6859370618        1.0539415000       -9.2988425432
 C        -7.7380155179        0.4785029393      -10.7369143672
 O        -8.2782781315       -0.5450519459      -11.0168245962
 C        -7.2927302733        1.4013235651      -12.0299361497
 C        -8.5023976710        2.3185058597      -12.5016451059
 O        -9.5961025918        1.7924604872      -12.3707391894
 C        -8.1685648809        3.5485358840      -13.3290282802
 C        -9.3193403286        4.1382079119      -14.1312275103
 C        -9.7904978849        5.5415255553      -13.6234669727
 O        -9.0635037142        6.3926557091      -13.0824003573
 C       -11.2876397383        5.8286421752      -13.6506282304
 C       -12.0061037255        4.9215024397      -12.4800055807
 O       -11.9685919005        3.7143493073      -12.6674405808
 C       -12.6171593628        5.6325991062      -11.2677035012
 C       -13.3353031925        4.8048003840      -10.1780033705
 C       -14.3706524727        3.6583625891      -10.6082882519
 O       -13.8928595747        2.5420272681      -10.6680007978
 C       -15.8655572391        3.8643035585      -10.9968954216
 C       -16.7144161980        4.4863896021       -9.6804466165
 O       -16.1237615824        5.1213250436       -8.8531261339
 C       -18.2939844607        4.3269522783       -9.5981590908
 C       -19.0803033871        5.7860308791       -9.8528479277
 C       -19.8254283672        5.7595911370      -11.2557112321
 O       -19.6972412731        4.8224735975      -11.9796960546
 C       -20.4744756178        7.0409693048      -11.6365203964
 C       -19.3399051670        8.0796213436      -11.8330075401
 O       -18.1237805811        7.8953411859      -11.7895842519
 C       -19.7480327684        9.5932578986      -12.1527318742
 C       -21.3470161987        6.8758162363      -12.9174307738
 C       -21.4550645515        7.6222906002      -10.4805285930
 C       -16.0687306567        4.8806199192      -12.1917461662
 C       -16.5064513870        2.5024920043      -11.6282772176
 C       -11.4563913535        7.4071451569      -13.3248684757
 C       -11.9315468453        5.5135237560      -15.1188515929
 C        -6.0321089417        2.2404216047      -11.4789240261
 C        -6.8381711995        0.3839024859      -13.1258655848
 C       -12.4990401530       -0.6614905295       -8.5388762522
 C       -10.5228453940       -2.1774315455       -8.5459008911
 C       -10.3698559021       -3.1736447846      -15.7988039506
 C       -10.5444060099       -5.6599513693      -15.2004203089
 C        -3.2533801156       -4.1374815154      -14.2649363507
 C        -2.6175405070       -6.5510752486      -14.5254267536
 C        -1.3620708226       -3.5077991991       -8.4327697325
 C        -0.6078671205       -1.9741528332      -10.3973134289
 C         5.1939385060       -5.6883242139       -5.5485899430
 C         5.3610027703       -3.2272194673       -6.3163062649
 C         9.5797068903       -3.2278149838      -11.0550295197
 C        11.0250223412       -5.1843108998      -11.7160325005
 C        15.1585103723       -6.5259030558       -6.3679513505
 C        13.5657438484       -8.4712737774       -6.2728567024
 C        11.0953391919       -3.8567790233       -1.2939453490
 C         9.2955114749       -3.5543870350       -3.0496789065
 H        13.4015400934       -3.4271385628       -2.4716265757
 H        12.7631710389       -1.7789675457       -2.5814703143
 H        13.6613975623       -2.6289803911       -3.9129835069
 H        11.2063387473       -7.3322032773       -1.8321273816
 H        12.4021409164       -5.8945551815       -1.8796743244
 H        11.9768671867       -7.9228509677       -4.2189456632
 H        13.0658772416       -7.9333588276       -2.9943008439
 H        13.7570830211       -4.4335338413       -7.4155194138
 H        12.1023783610       -4.0869676700       -7.0565239827
 H        12.2514559049       -6.0862531510       -9.1009999154
 H        13.0668044343       -4.4608178555       -9.6844804857
 H         7.0162922065       -5.5861475037      -10.7481762398
 H         7.5627324498       -4.2529013484       -9.8337066294
 H         7.8142197968       -6.7106112920       -8.2251702799
 H         6.1602622178       -6.5492862337       -8.6914854948
 H         3.2188228566       -3.2581691008       -8.0060993457
 H         2.3552528635       -4.3327992456       -6.8373035744
 H         1.3106074013       -5.5054361179       -8.4937186408
 H         2.2247725760       -5.1484023241       -9.8231130802
 H        -2.5499686908       -5.3938861945       -9.8022438552
 H        -1.0656589843       -6.4749376261       -9.9559257341
 H        -2.7728586432       -7.3343119402      -11.3479470947
 H        -1.4040426721       -6.6884180738      -12.3414190053
 H        -5.8470812447       -4.2178468172      -14.5072980530
 H        -6.2413610802       -4.6366404556      -12.7715014619
 H        -7.9680938697       -6.1675965867      -13.5150106163
 H        -7.4722686635       -6.1060424540      -15.1668050252
 H       -11.9486851799       -2.2421698118      -13.1365318205
 H       -10.2419795188       -1.8767300321      -13.4054933321
 H        -9.7810507034       -2.4556320115      -11.0175164970
 H       -11.3058782555       -3.3786345852      -11.0398721347
 H        -8.5021555741       -0.6007741877       -8.0492227340
 H        -8.8214118227        1.0071300166       -7.3923900559
 H        -6.6564169330        0.8027160459       -8.8908729522
 H        -7.9649070501        2.0729631380       -9.3752555722
 H        -7.3795377744        3.3818507757      -13.9571515318
 H        -7.8195460408        4.3177425640      -12.5609724248
 H       -10.1731421735        3.5707355359      -13.8845361638
 H        -9.1402555551        4.2722913376      -15.1496890564
 H       -13.2568275840        6.3981973626      -11.6524881135
 H       -11.8540697055        6.2365321227      -10.7713280135
 H       -13.9842633868        5.4546987998       -9.5864781014
 H       -12.7157200927        4.3006394497       -9.5269352377
 H       -18.5359378610        3.8672150983       -8.6316001335
 H       -18.7138954238        3.6410651994      -10.3500357207
 H       -18.5009792881        6.7229688393       -9.7542368994
 H       -19.8434565939        5.9403971782       -9.1018914965
 H       -19.0593954571        9.8411108366      -12.9379289445
 H       -19.5938096273       10.2608254709      -11.3385069479
 H       -20.7483389091        9.5870975844      -12.5600780132
 H       -20.7997991325        6.4816113876      -13.7845435845
 H       -21.8452428912        7.8367492804      -13.1987259188
 H       -21.9878226911        6.0908918346      -12.6291376069
 H       -20.8516129045        8.0658232355       -9.7151348187
 H       -22.2902853508        7.0364053573      -10.2168951670
 H       -21.8758855164        8.6174683807      -10.9320566073
 H       -17.1036339406        5.1367548737      -12.2593700417
 H       -15.9030020783        4.2461901125      -13.0111862977
 H       -15.4677828219        5.7608130007      -12.1471755284
 H       -15.8853117284        1.6368306718      -11.3847465511
 H       -16.5338782994        2.4897683243      -12.7502421546
 H       -17.4917072148        2.2004622613      -11.3756742633
 H       -11.2326636703        7.9716067340      -14.1808734571
 H       -10.8231150022        7.5868649124      -12.4871334986
 H       -12.4560161815        7.8269109948      -13.2065194918
 H       -11.8079782697        4.5016172790      -15.5124578476
 H       -11.6420718018        6.3054662220      -15.8469185138
 H       -13.0210351585        5.6287800741      -15.0662254367
 H        -5.3177116147        1.5337461505      -11.2802942334
 H        -6.2344328170        2.9000351088      -10.5537009826
 H        -5.5250935965        2.9538039717      -12.1371718483
 H        -6.1152918298       -0.3570040926      -12.6914917038
 H        -6.4060063675        0.8472337771      -14.0741334752
 H        -7.6964891876       -0.1817147663      -13.4897274922
 H       -13.1072787974        0.1681321615       -8.9772834261
 H       -12.4217418147       -0.4691366505       -7.4927116951
 H       -13.0268544062       -1.6752605146       -8.5649227738
 H       -10.9661678897       -3.0643082665       -8.9472250765
 H       -10.6795739801       -2.1439830179       -7.3996517990
 H        -9.4417977319       -2.2999364398       -8.6336336157
 H       -11.3343294294       -2.7806214230      -15.5866450167
 H       -10.5034717155       -3.5494227903      -16.8177813926
 H        -9.6896218930       -2.2957332770      -15.7847252778
 H       -11.6603127584       -5.6521142035      -15.4130173112
 H       -10.4451960930       -6.4599380969      -14.5167882097
 H       -10.0953497564       -5.9801773173      -16.1490354422
 H        -3.6211692992       -4.0402325550      -15.3075621724
 H        -2.2333009810       -3.9525244053      -14.3694547642
 H        -3.8454221677       -3.3867934226      -13.7871919613
 H        -1.5186965672       -6.4101880728      -14.2580304504
 H        -2.7151834788       -6.4511756218      -15.5073425613
 H        -2.8038295397       -7.5296772524      -14.2192529696
 H        -1.1363947847       -4.3891089539       -7.9226957902
 H        -2.3892838241       -3.4030680800       -8.6644628733
 H        -1.1152171575       -2.6680813877       -7.7404593354
 H         0.0955972244       -1.9376606611      -11.2725319749
 H        -0.3781345836       -1.1386165202       -9.7675972985
 H        -1.5968617342       -1.9939568841      -10.9299430792
 H         5.2888516108       -6.7117295963       -6.0244511805
 H         4.2953221656       -5.6299429941       -4.9121133264
 H         6.0694717559       -5.4819455235       -4.9361882440
 H         5.6190472937       -2.6886498857       -7.2290965983
 H         6.1815227190       -3.0213200851       -5.5575909532
 H         4.3011419438       -2.9774028368       -6.0789475358
 H         8.6016163955       -3.3811875753      -11.5459523998
 H        10.3406874594       -2.9313222220      -11.8443172043
 H         9.5727159813       -2.5095167604      -10.2554212708
 H        11.7478146247       -6.0164064561      -11.4953138576
 H        11.7534738307       -4.4563730349      -12.0938141366
 H        10.4826000566       -5.5082396223      -12.5999102698
 H        15.8695937452       -7.3362023917       -6.4043948216
 H        15.4342031932       -5.6767589721       -5.7105492667
 H        15.1573719191       -6.0838166993       -7.3741379944
 H        14.4600722150       -9.0238429497       -5.9316341585
 H        13.6276476829       -8.7071144365       -7.3470279039
 H        12.7027361423       -8.9452815051       -5.7929697796
 H        11.1482193017       -2.7777142427       -1.0645272555
 H        12.0488946250       -4.2356717065       -0.8213054747
 H        10.3445633014       -4.2495697161       -0.6613301497
 H         8.4945195716       -4.2338055230       -2.7562029856
 H         9.1879252546       -3.4260522234       -4.1408820039
 H         9.1955839293       -2.5208141904       -2.6554535400
 Na       10.1466017658       -4.6333274126       -6.0746975872
 Na      -11.7547588469        1.8029266698      -11.1196611995
