232

 C        13.0480011280       -2.6819259538       -3.0524355028
 C        11.7229399384       -3.2560359343       -3.6698042493
 O        11.5393302719       -3.2143796839       -4.8579070543
 C        10.6863512237       -4.0049143402       -2.7126565708
 C        10.9610116974       -5.5381886566       -3.2214136845
 O        10.2854956757       -6.0010572331       -4.0723484868
 C        12.0120083732       -6.5158312150       -2.4644571695
 C        12.6927748019       -7.4107691672       -3.5345791412
 C        13.5694506555       -6.4649598499       -4.4429057061
 O        14.0624293710       -5.4513602513       -4.0233907743
 C        13.8409521456       -6.8122193486       -5.9812398414
 C        12.5994665750       -6.1562678126       -6.6159478075
 O        11.4700357000       -6.5337489560       -6.4290718774
 C        12.7399612192       -4.8950303512       -7.4303568497
 C        12.1552196606       -4.9834764014       -8.8629682594
 C        10.7297731013       -4.5298482108       -9.1816895532
 O        10.0291358271       -4.0863257136       -8.2955523414
 C        10.2185018548       -4.6470162582      -10.6529381005
 C         8.8976256968       -5.6324250121      -10.4352767755
 O         9.0437729738       -6.8221846070      -10.6610681586
 C         7.5740384360       -5.0639098928       -9.7357323234
 C         7.2899636565       -5.9598876295       -8.5807736526
 C         6.8987191269       -5.0846629283       -7.3701991048
 O         7.7870198967       -4.5933332918       -6.7113093938
 C         5.4314170176       -4.6903684145       -6.9393870285
 C         4.2754923056       -5.1049064884       -7.9460408957
 O         4.3560244097       -6.0817705237       -8.6426792274
 C         2.8758864804       -4.2973180747       -7.7826041846
 C         1.7999454764       -4.7165022827       -8.7764269183
 C         1.1412420974       -3.3603574532       -9.3067102368
 O         1.8227929546       -2.3711258700       -9.4369909853
 C        -0.4334763712       -3.4062676631       -9.6559167368
 C        -0.7368951087       -4.5606300848      -10.7629019690
 O        -0.1157754415       -4.4257108372      -11.7585855520
 C        -1.6620532047       -5.6771634140      -10.4105477644
 C        -2.3209668190       -6.3794257439      -11.6161405560
 C        -3.4609850170       -5.6101846943      -12.2382470191
 O        -4.1104526487       -4.7776834137      -11.6129426197
 C        -3.5702391547       -5.6564669618      -13.8473461182
 C        -5.0511410831       -6.0377976980      -14.1636902335
 O        -5.3195566593       -7.2079579561      -14.3364249404
 C        -6.2205150503       -5.0923150644      -13.9206332853
 C        -7.6808143184       -5.5190335083      -14.4282027463
 C        -8.4621670055       -4.2066423528      -14.6082005515
 O        -7.9207501720       -3.0958775249      -14.8317069983
 C       -10.1053286845       -4.2114550412      -14.7688730247
 C       -10.6675379458       -4.0127643339      -13.3450516180
 O       -10.9542186509       -4.9769769209      -12.7270110359
 C       -11.1746093191       -2.6850821844      -12.8347594676
 C       -10.8510366704       -2.4839906613      -11.3115051420
 C       -11.2537765463       -1.1380036934      -10.7428630606
 O       -11.7550446803       -0.3335473981      -11.4781981002
 C       -11.0494568320       -0.8945431128       -9.1792949101
 C       -10.1440592692        0.3705364085       -9.0323355342
 O       -10.6617066429        1.4452378034       -9.3539184798
 C        -8.6912300797        0.2797663211       -8.4884371759
 C        -7.6407729223        1.0213629807       -9.3928862110
 C        -7.7373278023        0.4785789174      -10.8220551886
 O        -8.1136971602       -0.6622285362      -10.9743090740
 C        -7.2147780590        1.3040051079      -11.9906216224
 C        -8.4805595973        2.1547898195      -12.6384871459
 O        -9.5927153325        1.7828874669      -12.5182921823
 C        -8.2103334600        3.5329988341      -13.2829396074
 C        -9.3999663932        4.1002227848      -14.0009516195
 C        -9.8679305465        5.4917405880      -13.5151703833
 O        -9.0709579907        6.3196057662      -13.1270107489
 C       -11.4001919246        5.8814322227      -13.5644135760
 C       -12.0812680563        4.9646505036      -12.5397213169
 O       -12.0703828192        3.7781151038      -12.7744269607
 C       -12.6874193432        5.6517247400      -11.3156190665
 C       -13.3783423077        4.8375625755      -10.1975924156
 C       -14.2845034639        3.7337875338      -10.6597544716
 O       -13.8645625364        2.6159300018      -10.7398844343
 C       -15.8126534005        3.9066844575      -11.0206218781
 C       -16.6975462692        4.4823682799       -9.8165356146
 O       -16.0940229974        5.0231425942       -8.8907719679
 C       -18.1966509979        4.2854452718       -9.5898382686
 C       -19.0064137995        5.5801610049       -9.6811306450
 C       -19.7009649982        5.6598703954      -11.0361519632
 O       -19.6360323912        4.7213066165      -11.7739267168
 C       -20.4954002503        7.1114820259      -11.6271779033
 C       -19.3155817949        8.0550299435      -11.9106272976
 O       -18.2314568959        7.6189390183      -11.7771255887
 C       -19.6454387780        9.5464600150      -12.2046964851
 C       -21.3632494900        6.9510735516      -12.9106355987
 C       -21.4011364016        7.7226596031      -10.5221811464
 C       -16.0257067664        5.0145920224      -12.0921531683
 C       -16.2640697949        2.4929375544      -11.4332759790
 C       -11.5405383380        7.3904727728      -13.3194073740
 C       -11.9470004116        5.6421856206      -15.0013709735
 C        -6.0869850150        2.3920180649      -11.6830849287
 C        -6.9086524525        0.4318928328      -13.1452907292
 C       -12.3229679939       -0.4401855720       -8.4820525889
 C       -10.5947435150       -2.2107181922       -8.5327754362
 C       -10.5863823737       -3.1403234917      -15.7972119989
 C       -10.5819787085       -5.6425925156      -15.2273846169
 C        -3.2151387248       -4.1864950308      -14.2435937243
 C        -2.5074770661       -6.5928937872      -14.4440883323
 C        -1.3474971216       -3.5106674798       -8.4634699453
 C        -0.6695149203       -1.9990159497      -10.3558186542
 C         5.2064921634       -5.5866637653       -5.5699147712
 C         5.3523435603       -3.1887471737       -6.5222630150
 C         9.6076331313       -3.2928601644      -11.1406626848
 C        10.9880504402       -5.2692252145      -11.7927340443
 C        15.2798191927       -6.3263027354       -6.4496244779
 C        13.7827131359       -8.3741654376       -6.2285834621
 C        10.9206021711       -3.7436937361       -1.2341952914
 C         9.3013600199       -3.6732970107       -3.0637400673
 H        13.4148683621       -3.3863567388       -2.4561862347
 H        12.7896837320       -1.8191898690       -2.4620389928
 H        13.7897350229       -2.5629311889       -3.7803880742
 H        11.3758545145       -7.1856648876       -1.8896085233
 H        12.6627391198       -5.8708186469       -1.8078370793
 H        11.9884283907       -7.9431446541       -4.1906352234
 H        13.1581915688       -8.3414801122       -3.0368982189
 H        13.8221126497       -4.6958664642       -7.6432381715
 H        12.3186821182       -4.0312856828       -6.9156910170
 H        12.3442157291       -5.9905145786       -9.2938754913
 H        12.7808415417       -4.2223731181       -9.2677246322
 H         6.7800745550       -4.9807796220      -10.5147785385
 H         7.7781968145       -3.9724400509       -9.4452762251
 H         8.2166866422       -6.5242183825       -8.3862444329
 H         6.5078126300       -6.8027777205       -8.7912839901
 H         3.0869787852       -3.2701913380       -8.0365986287
 H         2.4964540786       -4.4107371327       -6.7808720765
 H         1.2218494928       -5.5370469577       -8.3926246009
 H         2.2272690060       -5.2369819491       -9.6533225898
 H        -2.4741905288       -5.3356052403       -9.8059860245
 H        -1.0858398536       -6.4146348733       -9.8585552438
 H        -2.8551008366       -7.3661793140      -11.4328272574
 H        -1.5507758135       -6.5055887269      -12.4627948885
 H        -5.9908137842       -4.1562995381      -14.4185698783
 H        -6.3925751066       -4.8193041312      -12.8936423982
 H        -8.1255079356       -6.0775736996      -13.5831214699
 H        -7.7458912342       -6.1566407131      -15.2969194886
 H       -12.2560842043       -2.5258961165      -12.9367725564
 H       -10.7096435010       -1.8155865960      -13.3116222537
 H        -9.8307092075       -2.5920281813      -11.0918067435
 H       -11.4261233274       -3.2500215159      -10.7760913521
 H        -8.4151391638       -0.8309930183       -8.4621662959
 H        -8.6369716312        0.6116421866       -7.4458186250
 H        -6.6800734862        0.4947546015       -9.1728796662
 H        -7.7286216577        2.1013871870       -9.2156119204
 H        -7.4796987588        3.4395494476      -14.1116493241
 H        -7.8190149578        4.1998141062      -12.5748176810
 H       -10.2763259706        3.4261779652      -13.8990268588
 H        -9.1554248011        4.3694936886      -15.0261267330
 H       -13.3372717418        6.4198807526      -11.7307863370
 H       -11.9528703480        6.3229810390      -10.8284742783
 H       -14.0897794933        5.4444364669       -9.5581477822
 H       -12.6682025467        4.2812206134       -9.5138787861
 H       -18.2427836116        3.9754116631       -8.5101930337
 H       -18.6917844390        3.4475100928      -10.1038875096
 H       -18.4689902492        6.4751574737       -9.4247073161
 H       -19.7599103946        5.5506802250       -8.9274486909
 H       -18.9351515155       10.0504907872      -12.9272454539
 H       -19.5972886261       10.0004953944      -11.2291678963
 H       -20.6797140077        9.5204712170      -12.5456250812
 H       -20.7247295769        6.9096386124      -13.8003053447
 H       -21.9693563727        7.8781410879      -12.9801962081
 H       -21.9500440512        6.0784538181      -12.8815919409
 H       -20.8350406181        7.8337902932       -9.5719533272
 H       -22.4042255594        7.2102277989      -10.4696208921
 H       -21.6614801313        8.8230247912      -10.7586143965
 H       -17.0538881869        5.3632128053      -12.1104159287
 H       -15.8157564816        4.6133366518      -13.0745624803
 H       -15.4142996777        5.8521694711      -11.7325276509
 H       -15.5200519733        1.7479272229      -11.1637086685
 H       -16.3673217477        2.4131317954      -12.5210328302
 H       -17.1884367561        2.0735838666      -11.0772333237
 H       -11.1094989364        7.9030972499      -14.1964343224
 H       -11.0260956419        7.6101264151      -12.3961968717
 H       -12.5099730206        7.8222797314      -13.4236490555
 H       -11.6729466491        4.6331575232      -15.3286898575
 H       -11.7186881736        6.4424631266      -15.7792092356
 H       -13.0109726558        5.5548056801      -14.9911991191
 H        -5.2119827963        1.8524416178      -11.2900259110
 H        -6.2907334882        3.1806464094      -11.1323139109
 H        -5.7926837332        2.8178418872      -12.6050141018
 H        -6.3422153983       -0.4900970445      -12.8307992493
 H        -6.3479721732        0.9786096264      -13.9638152635
 H        -7.7934488821        0.0600282389      -13.5994804558
 H       -12.6776099198        0.5047785530       -8.7880286374
 H       -12.0004635110       -0.3067343755       -7.3863597470
 H       -13.0767930259       -1.1963029653       -8.4235082791
 H       -11.3889930385       -2.9866053735       -8.5537855936
 H       -10.1752385833       -2.0901909726       -7.5061297297
 H        -9.7414404222       -2.6243909035       -9.0897029246
 H       -11.5561761056       -2.5469966403      -15.5960275512
 H       -10.7594421420       -3.6660795957      -16.7462027697
 H        -9.8477792861       -2.3506392893      -15.9704070421
 H       -11.6103058970       -5.6985085235      -15.4094172542
 H       -10.4044459429       -6.4910168559      -14.5582469683
 H       -10.1447016996       -5.8995871450      -16.1575465339
 H        -3.2423210044       -4.1449056698      -15.3261470676
 H        -2.1807957616       -3.8226414323      -14.0062063140
 H        -4.0183752370       -3.4820382772      -13.9933774926
 H        -1.4868765379       -6.2635056580      -14.3540983888
 H        -2.6872986694       -6.8061832636      -15.5255518537
 H        -2.5458162850       -7.5097485761      -13.8609044400
 H        -1.2784703825       -4.4145465821       -7.9468813716
 H        -2.3368491068       -3.2438552583       -8.7906134656
 H        -1.0790373611       -2.7590763001       -7.7350943604
 H         0.1716831009       -1.6341009284      -10.9674608980
 H        -0.7167688486       -1.3365286954       -9.4345396967
 H        -1.5575024670       -1.9383107787      -11.0638719010
 H         5.5474820092       -6.5593104311       -5.8615600668
 H         4.1560456495       -5.6948268933       -5.2204835302
 H         5.8784144906       -5.1584229126       -4.7345696539
 H         5.7222230966       -2.5504413121       -7.3042305057
 H         6.0696893043       -3.1479364773       -5.6678604595
 H         4.3402150580       -2.9548482891       -6.3004003531
 H         8.7778651583       -3.5907089734      -11.8327423769
 H        10.3622216370       -2.8719314499      -11.7522315161
 H         9.3348659226       -2.6209681250      -10.3191237281
 H        11.5143284593       -6.1941292185      -11.5625607496
 H        11.8131699845       -4.6737807471      -12.1562206869
 H        10.3646978449       -5.4774152891      -12.7182701530
 H        15.9255193199       -7.1173200164       -6.6584849522
 H        15.6822228496       -5.5942594646       -5.7687879064
 H        15.1678397578       -5.7773569544       -7.4038263349
 H        14.3562671436       -8.9184918377       -5.4573852892
 H        14.2396069261       -8.6892491199       -7.1431693531
 H        12.7395886467       -8.7813579911       -6.1658519778
 H        11.0372053153       -2.6949373850       -0.8702039799
 H        11.8197373480       -4.2230130954       -0.8348845810
 H        10.0956116069       -4.1951245627       -0.6328775630
 H         8.6121940603       -4.4242912275       -2.5792372907
 H         9.0577461184       -3.7196492770       -4.1325461600
 H         9.1092161541       -2.6704232413       -2.7543190015
 Na        9.8522663459       -4.7360303942       -5.9090229351
 Na      -11.7957271640        1.8679375160      -11.2548374821
