232

 C        13.0577130458       -2.6705537588       -3.0212390906
 C        11.7711437616       -3.2958947009       -3.6683017157
 O        11.6209325941       -3.2617666098       -4.8769679149
 C        10.7284551199       -4.0846843648       -2.7038164288
 C        11.0659059182       -5.6093167713       -3.0368757520
 O        10.3606398778       -6.0710229885       -3.9509817664
 C        12.2079147113       -6.4651814407       -2.5252694218
 C        12.8748010953       -7.3986652280       -3.5928539525
 C        13.7501167603       -6.5137872348       -4.4301883831
 O        14.1475243067       -5.4785173532       -3.8544536569
 C        13.9102255346       -6.7885836243       -5.9496566635
 C        12.5870844980       -6.0571395612       -6.6388556293
 O        11.4748232783       -6.5765764325       -6.4300035972
 C        12.7464045557       -4.7409093622       -7.5169441507
 C        12.1891867297       -4.9841863092       -9.0087755507
 C        10.7071075502       -4.5406541570       -9.1980934700
 O        10.0444235512       -3.8730368992       -8.3594521645
 C        10.1142304531       -4.7046502654      -10.6856573333
 C         8.8492184181       -5.5799010971      -10.5113700239
 O         8.8765927894       -6.7345036236      -10.7404755907
 C         7.7404427683       -4.9322406485       -9.6650309154
 C         7.4363654138       -5.9153547899       -8.5270129296
 C         6.8206932909       -5.1237052266       -7.4131859516
 O         7.6373418947       -4.6487452908       -6.5992519554
 C         5.4044732700       -4.7728096579       -7.0330653947
 C         4.2316037719       -5.2189323172       -7.9530763225
 O         4.3199992398       -6.2461292356       -8.6278325703
 C         3.0020313850       -4.3651437988       -7.7924172983
 C         1.7878515303       -4.6513649253       -8.6881560137
 C         1.1480261395       -3.4377157010       -9.2930035979
 O         1.8055530110       -2.4514016807       -9.5418139514
 C        -0.3645565216       -3.3505869107       -9.6297137884
 C        -0.7406000739       -4.5050351259      -10.7592452993
 O        -0.1528569311       -4.6523311314      -11.8088420018
 C        -1.6507129424       -5.6412043074      -10.2409666295
 C        -2.2704700213       -6.3362560257      -11.5100609145
 C        -3.3822103244       -5.5035373972      -12.2352112945
 O        -4.1546101715       -4.8064367445      -11.6251498037
 C        -3.6083392926       -5.6733475027      -13.7727917146
 C        -5.1713075630       -6.0408361580      -14.0880279447
 O        -5.3070497100       -7.2017705219      -14.4230269926
 C        -6.2337982425       -4.9055106263      -13.9588700865
 C        -7.7086804410       -5.3070882467      -14.4816405576
 C        -8.6105018590       -4.0936108881      -14.8109871648
 O        -8.0901954543       -3.0067767799      -14.9557901746
 C       -10.1618433913       -4.2087949632      -14.8383884398
 C       -10.8633233924       -4.0358989192      -13.3068279849
 O       -10.9681096609       -5.0045534155      -12.5662271111
 C       -11.2862876664       -2.6250261886      -12.7655627557
 C       -10.8493846635       -2.5694618647      -11.3090624862
 C       -11.3055700642       -1.2396710341      -10.6853918192
 O       -11.7960114579       -0.3256921368      -11.3740560550
 C       -11.0033352202       -0.9163915270       -9.1593182882
 C       -10.0622246934        0.3080757119       -9.1113445999
 O       -10.5073414889        1.4210829284       -9.2821161183
 C        -8.6207006484        0.0843985791       -8.6429920148
 C        -7.6398033585        1.0083060040       -9.3644880344
 C        -7.6149208728        0.4359183254      -10.8596712084
 O        -8.0059034610       -0.7177117272      -11.0610743898
 C        -7.2929239089        1.3684525252      -12.1500299348
 C        -8.5287378955        2.2006431954      -12.5640834534
 O        -9.6510204842        1.6834909738      -12.5963739658
 C        -8.2286854753        3.5634266639      -13.2757297216
 C        -9.5099766861        4.0277698066      -13.9954251130
 C        -9.8695838639        5.5212842302      -13.4902975425
 O        -9.0071583457        6.2038842225      -13.0934643636
 C       -11.4481626832        5.9571696182      -13.5505869571
 C       -12.2020370337        5.0340866845      -12.5959221671
 O       -12.2289881627        3.8057828109      -12.7353934009
 C       -12.8076956647        5.7354688269      -11.3926834259
 C       -13.4018615591        4.9599384692      -10.2233948525
 C       -14.2687385298        3.7516675343      -10.6956771123
 O       -13.7465950329        2.6400383690      -10.7549667786
 C       -15.8284996568        3.8726941895      -11.0443501736
 C       -16.5605267790        4.3776995266       -9.6307471222
 O       -15.8837957018        5.0589423987       -8.8930002109
 C       -18.1414934326        4.2253169046       -9.5710548270
 C       -19.0271708166        5.4860294749       -9.5901148722
 C       -19.7443470738        5.6848111700      -11.0242270889
 O       -19.7381070458        4.7116178018      -11.7847938501
 C       -20.4730641222        7.0430621315      -11.4745385692
 C       -19.2634830966        7.9967095665      -11.8106089006
 O       -18.1385364638        7.5005688613      -11.8721734730
 C       -19.4808386138        9.4433071196      -12.2639743121
 C       -21.2630639894        6.8139491091      -12.8043841945
 C       -21.3447711622        7.6809531431      -10.4072146472
 C       -15.9762685676        5.1285502344      -12.0588174403
 C       -16.4028209575        2.5284460513      -11.3938059841
 C       -11.6139244261        7.4850594047      -13.2530349600
 C       -11.9935138739        5.6407342158      -14.9443298620
 C        -6.1556771545        2.3284992128      -11.8306394498
 C        -6.8525818559        0.3993105676      -13.3015007352
 C       -12.3508525611       -0.3316652691       -8.4585272380
 C       -10.4954062534       -2.1427099934       -8.3990553855
 C       -10.7043854988       -3.1674398896      -15.7251399493
 C       -10.5264968299       -5.5758522240      -15.3355461699
 C        -3.2297637298       -4.1739758743      -14.3622065003
 C        -2.6453208337       -6.6396672677      -14.4644370509
 C        -1.2401699647       -3.5128798264       -8.3791697779
 C        -0.8035832787       -2.0276062118      -10.3633519835
 C         5.1750326184       -5.4568759867       -5.7241427502
 C         5.3996983354       -3.2179176361       -6.7270346692
 C         9.6390764264       -3.2271884119      -11.1834594939
 C        11.0215915090       -5.3565875512      -11.6456298508
 C        15.2280039353       -6.1732884453       -6.4311102603
 C        13.9128448259       -8.3192719338       -6.1658140873
 C        10.8857429928       -3.7431491053       -1.2061433789
 C         9.2075319978       -3.6966382129       -3.0909421444
 H        13.6260931864       -3.4148463210       -2.3607261790
 H        12.6209557671       -1.9113541926       -2.4205192135
 H        13.7497128679       -2.3402677198       -3.7587280125
 H        11.8061182062       -7.1036011262       -1.7877131595
 H        12.8690447783       -5.6940457556       -2.0585345558
 H        12.2113663560       -8.0552499050       -4.2174300278
 H        13.4098231502       -8.2084158034       -3.0461690033
 H        13.8207893166       -4.3870048212       -7.5150641717
 H        12.0738957977       -3.9614470410       -7.0609928260
 H        12.1777313148       -6.0107611962       -9.2429472260
 H        12.7968836819       -4.3765688039       -9.6294903871
 H         6.8395031422       -4.8057197950      -10.3086665388
 H         8.0028698657       -3.8832554535       -9.3769126761
 H         8.3000146760       -6.5418179613       -8.2510864886
 H         6.6610727499       -6.6507147365       -8.8374040594
 H         3.3254555280       -3.3309074400       -7.9480200693
 H         2.7271890180       -4.5718715007       -6.7710297752
 H         1.0736261049       -5.2541947758       -8.0898704121
 H         2.0033940068       -5.3937951975       -9.4308547139
 H        -2.5546995288       -5.2057262061       -9.7666504694
 H        -1.1196490037       -6.2913233879       -9.6407567300
 H        -2.8905537128       -7.3044113734      -11.3649241439
 H        -1.5038929950       -6.5141043055      -12.2524204294
 H        -5.9543615374       -4.0466749966      -14.4968737800
 H        -6.2956623410       -4.6421997807      -12.9793063909
 H        -8.1255613057       -6.0416970870      -13.7882261262
 H        -7.5546900308       -5.8495200027      -15.4157412473
 H       -12.3988682206       -2.4200238067      -12.8144468759
 H       -10.8560453985       -1.7457250980      -13.1929684040
 H        -9.7927489136       -2.6900220758      -11.1927583258
 H       -11.3972499739       -3.3558787570      -10.7478809709
 H        -8.3086757007       -0.9457537445       -8.5496680929
 H        -8.7123300998        0.4837545998       -7.6174940415
 H        -6.7059249100        1.0173672744       -8.8809152109
 H        -8.2814712654        1.9441300498       -9.3937031070
 H        -7.4275735039        3.3399659139      -14.0750608773
 H        -7.8648792378        4.3260167444      -12.6470004817
 H       -10.3726677373        3.3547309055      -13.6898567773
 H        -9.4615185253        4.2248535376      -15.1233089012
 H       -13.4269334698        6.5960156958      -11.7760874419
 H       -12.0171234350        6.3551847117      -10.9183637564
 H       -13.9416040637        5.5544684627       -9.4398800040
 H       -12.5360373615        4.3341587045       -9.7369117137
 H       -18.4569864627        3.6013877125       -8.7153466574
 H       -18.4775868169        3.5953267563      -10.4130895979
 H       -18.4297164194        6.3421782381       -9.3493077374
 H       -19.7589352994        5.4786176616       -8.7741338157
 H       -18.5846718884        9.7551119600      -12.8183581282
 H       -19.5211414934        9.9606685631      -11.2454545481
 H       -20.4429765526        9.5214871594      -12.8093490832
 H       -20.5057462594        6.8889366698      -13.5569803375
 H       -21.8846899144        7.6584223587      -12.9085312617
 H       -21.8696688196        5.8659552388      -12.9551809757
 H       -20.8790422538        7.6277790302       -9.3602296730
 H       -22.3781493658        7.1602914154      -10.5089708526
 H       -21.5434797055        8.6720615632      -10.5870950417
 H       -17.0321419611        5.2814834053      -12.3714954036
 H       -15.3797358309        4.9762640880      -12.9951518304
 H       -15.6828007422        5.9528237605      -11.3901201301
 H       -15.8954936162        1.7199893195      -10.8734298468
 H       -16.4100960045        2.2903338899      -12.4201825884
 H       -17.4741629615        2.3547436930      -11.1478488641
 H       -11.0370050170        8.1854374404      -13.8967904545
 H       -11.4061759831        7.6175453902      -12.1823949516
 H       -12.5898092648        7.8142716274      -13.5658493001
 H       -11.7762310531        4.5733770810      -15.0974045197
 H       -11.6016748506        6.2393688568      -15.7353352962
 H       -13.0937435269        5.6439600510      -15.0316688982
 H        -5.4421296595        1.7503676891      -11.2126748188
 H        -6.4115537174        3.2583257866      -11.3221333469
 H        -5.7270292101        2.7379508814      -12.7088094630
 H        -6.2377425180       -0.3008118086      -12.7584232561
 H        -6.2889240596        0.8631179039      -14.0395921508
 H        -7.6154912181       -0.2553482511      -13.7981672876
 H       -12.5515162497        0.6166117782       -8.9484187598
 H       -12.1718708025       -0.0872937479       -7.3898101420
 H       -13.1916774107       -0.9596847271       -8.4463289296
 H       -11.3879062322       -2.7314287133       -8.0613471559
 H        -9.9130336204       -1.8776119963       -7.5896206551
 H        -9.8520103659       -2.8616783741       -8.9535091297
 H       -11.6815807074       -2.6960439654      -15.4236798824
 H       -10.8111144606       -3.5512857289      -16.7656529552
 H       -10.0275352425       -2.3040777906      -15.7497206144
 H       -11.5601011741       -5.6860147232      -15.4096161730
 H       -10.2470777916       -6.3300918673      -14.6121137070
 H       -10.1939173794       -5.8989891651      -16.2838252891
 H        -2.9758526598       -4.0567785079      -15.4379459417
 H        -2.3073090635       -3.8051739697      -13.8039589162
 H        -4.0378933529       -3.4401131576      -14.1616326488
 H        -1.6657451831       -6.2551359405      -14.6111779279
 H        -3.0610381938       -6.8577228444      -15.5433416364
 H        -2.5437332259       -7.6175367649      -13.8938894206
 H        -1.0515158614       -4.5147334806       -7.8961527698
 H        -2.2725907320       -3.3182124264       -8.6592858588
 H        -1.0107988996       -2.8515806224       -7.6074401624
 H        -0.1168609605       -1.5780001959      -11.0946904605
 H        -0.9216384325       -1.3591132407       -9.4500222668
 H        -1.7392192008       -2.1458846306      -10.9036666809
 H         5.4630501753       -6.5118953836       -5.7449465265
 H         4.0869522823       -5.4414697734       -5.6656485389
 H         5.6148128868       -4.9393064037       -4.8508733580
 H         5.5477678564       -2.6514367275       -7.6498087338
 H         6.2319474288       -3.1385905974       -6.1488774075
 H         4.4993843619       -2.9445372122       -6.2412708427
 H         9.1701033014       -3.2655518212      -12.1437151834
 H        10.5390317612       -2.6903990102      -11.3084929816
 H         9.0668981184       -2.7595775856      -10.3719560458
 H        11.2671529297       -6.3631170365      -11.3941852473
 H        12.0203137283       -4.8702863437      -11.6605158099
 H        10.7259502909       -5.3829886735      -12.6888028754
 H        16.0470145189       -6.9037967690       -6.3277680208
 H        15.4257860745       -5.2972389663       -5.8669408453
 H        15.1861783677       -5.8764487991       -7.4530276099
 H        14.1437154986       -8.9269823839       -5.2932160938
 H        14.5507674767       -8.6393049587       -6.9948247266
 H        12.9100096189       -8.6217049539       -6.4528085986
 H        10.7907820862       -2.6964895918       -0.9303036261
 H        11.7875698501       -4.0295803640       -0.6926093280
 H        10.0330813955       -4.2642667667       -0.6599279912
 H         8.6415443577       -4.4164367643       -2.5053204366
 H         8.8022179739       -3.8062784855       -4.0824335983
 H         9.0156706187       -2.6972792929       -2.7169278964
 Na        9.6864609416       -4.8269407962       -5.8705281633
 Na      -11.8065947727        2.0192429446      -11.4398358427
