232

 C        12.9288515045       -2.6798418635       -3.0225338795
 C        11.7300603459       -3.3528389537       -3.5849970487
 O        11.5512118019       -3.4302027351       -4.8013933652
 C        10.8149938878       -4.1898387250       -2.6667949817
 C        11.0561356253       -5.6683579993       -3.0577941441
 O        10.3695854364       -6.2265733639       -3.9225289605
 C        12.2506932630       -6.4269561138       -2.3347567255
 C        12.8297402336       -7.2313240906       -3.4627699675
 C        13.7555035335       -6.3519865605       -4.3760566946
 O        14.4463695488       -5.4482094643       -3.9520478734
 C        13.8724071649       -6.6701614009       -5.9814177069
 C        12.6800329584       -6.0003843568       -6.6965158472
 O        11.5934983759       -6.5170226682       -6.4352081778
 C        12.6533046641       -4.7703197402       -7.5532700150
 C        12.1306784154       -4.9961179514       -9.0140620655
 C        10.8177753997       -4.3615698715       -9.2823212923
 O        10.1762408470       -3.8397565772       -8.3612672075
 C        10.2089937818       -4.6257403231      -10.6587625687
 C         8.8027759712       -5.5693356307      -10.4237542096
 O         8.6968104741       -6.6606521984      -10.9114261570
 C         7.6860954911       -4.9360473859       -9.6608421462
 C         7.3042152423       -5.9480107798       -8.4931813201
 C         6.8476634761       -5.1152829326       -7.2226492637
 O         7.6374681227       -4.7053988279       -6.3698187486
 C         5.3508415852       -4.7933262487       -7.0285619062
 C         4.1710161491       -5.2917335986       -8.0428388130
 O         4.2793687924       -6.3253882170       -8.6355157792
 C         2.9575512538       -4.3782155095       -7.8825133486
 C         1.6395334408       -4.7111783181       -8.6507493909
 C         1.1280604605       -3.3908700432       -9.3722091685
 O         1.9050325592       -2.4766912578       -9.6173107248
 C        -0.4385334799       -3.4002904819       -9.6734231215
 C        -0.6434426024       -4.6251768145      -10.5887714981
 O        -0.1731915043       -4.6830528566      -11.7553162751
 C        -1.8163835970       -5.5845401383      -10.2445576866
 C        -2.3211504911       -6.3602643192      -11.4477932941
 C        -3.4480570999       -5.4848360479      -12.2394028935
 O        -4.1373160701       -4.8057031378      -11.5177813125
 C        -3.6267932018       -5.5755068197      -13.7687031834
 C        -5.1756427113       -5.9618170227      -14.0998890464
 O        -5.4786738448       -7.0592821989      -14.4753062125
 C        -6.2075768251       -4.8559028690      -14.0537635120
 C        -7.6446003052       -5.1785599685      -14.4956701787
 C        -8.5929997853       -3.9160188123      -14.7222713848
 O        -8.2425646483       -2.8658482112      -15.0852261924
 C       -10.3005372022       -4.2274623691      -14.7268595577
 C       -10.8310502291       -4.0866813380      -13.3175121272
 O       -10.9402650613       -5.0498327208      -12.5269273597
 C       -11.2420951953       -2.7022502262      -12.8448163320
 C       -10.9589486829       -2.5219041319      -11.2958497065
 C       -11.3789337129       -1.2199197571      -10.6134254910
 O       -11.8628067141       -0.3693771344      -11.3313422353
 C       -11.0251750952       -0.8915784615       -9.0769396962
 C        -9.9797236140        0.2951702722       -8.9795158917
 O       -10.2173577615        1.4017755940       -9.4158649032
 C        -8.5014427330        0.0546268284       -8.6862939097
 C        -7.6978433290        1.0334445396       -9.5952807669
 C        -7.7108020390        0.4487773878      -10.9886636543
 O        -7.8275971662       -0.7419553831      -11.1737346456
 C        -7.1935241924        1.3658477278      -12.1743145375
 C        -8.5913803923        2.0955491475      -12.7318050131
 O        -9.7081230969        1.6222826854      -12.5331509311
 C        -8.4082259243        3.4525374363      -13.3248368880
 C        -9.6746247576        4.0734086836      -14.0025202224
 C        -9.9250544039        5.5277690976      -13.5302988289
 O        -9.0502689181        6.2046913775      -12.9921255842
 C       -11.3947105284        5.9336495590      -13.5844417504
 C       -12.1855502556        5.1969040713      -12.5261869611
 O       -12.4096019796        4.0056800598      -12.7607061176
 C       -12.9153175750        5.8656460802      -11.3402492711
 C       -13.4402285775        4.9527323613      -10.3070370893
 C       -14.3113076027        3.7289059730      -10.6810497072
 O       -13.8560572810        2.5772566733      -10.7338526045
 C       -15.8305192979        3.9103735811      -10.8473647459
 C       -16.5186402637        4.5596350397       -9.6740459069
 O       -15.9304612723        5.0423507724       -8.7488241742
 C       -17.9859870241        4.2702406011       -9.5832144865
 C       -19.0035518169        5.4899661923       -9.6500013561
 C       -19.7881056166        5.6207342144      -10.9848864651
 O       -19.8560488900        4.7129303588      -11.7928350239
 C       -20.3469371026        6.9658406655      -11.3147655299
 C       -19.0903250838        7.8798484986      -11.7471107733
 O       -17.9458404192        7.4005179265      -11.9459678782
 C       -19.3717235768        9.3288905389      -12.2579599759
 C       -21.1120958723        6.6512403275      -12.6208791853
 C       -21.2772682419        7.5513782089      -10.2161359519
 C       -16.0136605698        5.0112114209      -11.9365537055
 C       -16.4326543681        2.6230811539      -11.5390718176
 C       -11.5292976746        7.4968125327      -13.2968979750
 C       -12.0296360004        5.6228407608      -15.0292586066
 C        -6.0302444967        2.2437460060      -11.8098294283
 C        -6.8380048682        0.3991332186      -13.3886745230
 C       -12.4108778694       -0.4224668924       -8.5138864360
 C       -10.4979238100       -2.0583845816       -8.1860827259
 C       -10.8975848223       -3.0716563654      -15.7136957806
 C       -10.5710129752       -5.6585964341      -15.3769081067
 C        -3.2840176565       -4.2054171515      -14.4640395323
 C        -2.8605422863       -6.6734690807      -14.4971433581
 C        -1.0951670234       -3.5721311828       -8.2956033736
 C        -0.8625706068       -2.0941681007      -10.3663207136
 C         5.0281416787       -5.4957690847       -5.6665267695
 C         5.3799416500       -3.1513014703       -7.0221658721
 C         9.8135079950       -3.1704783451      -11.2638006643
 C        11.1470117178       -5.3758412174      -11.5602861541
 C        15.2220558754       -5.9989168899       -6.4351838592
 C        13.9263074975       -8.1822268102       -6.2071501641
 C        11.0069290187       -3.8141892763       -1.2245587037
 C         9.3706604400       -3.7405286910       -3.0774255990
 H        13.6681537382       -3.4720813004       -2.5931811341
 H        12.5587313464       -1.9771468443       -2.2456833160
 H        13.4947763098       -2.1895202578       -3.8782310318
 H        11.8628008532       -7.0212411914       -1.4883681024
 H        12.8972455314       -5.6744765075       -1.9865651246
 H        12.1240404057       -7.8607540075       -4.0151810082
 H        13.4695696269       -8.0072918891       -3.1428688422
 H        13.6056358947       -4.2717332966       -7.5872009527
 H        11.9031424742       -4.1445214425       -6.9980756599
 H        11.9418145881       -6.0227841813       -9.1785225112
 H        12.9405771649       -4.5693065701       -9.6217942813
 H         6.8966071838       -4.5473872138      -10.3035522174
 H         8.1241064732       -4.0844767500       -9.2303063743
 H         8.2432034868       -6.4685229595       -8.2405508604
 H         6.6355802330       -6.7043100198       -8.6839884672
 H         3.3015491003       -3.4824391726       -8.4432262887
 H         2.8944056831       -4.1860018334       -6.7986324391
 H         0.8542475902       -5.2459624268       -8.0915244200
 H         1.8891808013       -5.4895217221       -9.3664861740
 H        -2.6908465455       -5.0986301882       -9.7912698997
 H        -1.4395669017       -6.4446401887       -9.6865655426
 H        -2.7431078362       -7.2999583383      -11.1542003048
 H        -1.5013333786       -6.5126720613      -12.0945231724
 H        -5.9845894276       -4.0249828014      -14.6702814976
 H        -6.2221658550       -4.5371637519      -12.9810678058
 H        -8.0581238581       -5.9723627869      -13.9010511399
 H        -7.5032842609       -5.6088235838      -15.5080011347
 H       -12.3013526211       -2.7131451053      -13.1224207820
 H       -10.8451418225       -1.7673282077      -13.2699664415
 H        -9.8127282345       -2.4923491459      -11.2789412223
 H       -11.2820725713       -3.3623566094      -10.6908882956
 H        -8.2274451794       -0.9057851322       -9.0321417927
 H        -8.2384259739        0.1177450122       -7.6270833725
 H        -6.6821293333        0.9837087258       -9.2760752624
 H        -8.1705053398        1.9883545381       -9.6734029027
 H        -7.5624225583        3.5017959927      -13.9883794706
 H        -8.1660419394        4.0779146716      -12.3719032903
 H       -10.6224971823        3.5644789773      -13.7153339929
 H        -9.6535784782        4.2402585835      -15.1268006620
 H       -13.7630693499        6.4605596384      -11.7946048891
 H       -12.4506604440        6.6977462122      -10.7967609809
 H       -14.0723796063        5.5351907939       -9.6196318640
 H       -12.6661564676        4.4637423246       -9.7451232011
 H       -18.1297351139        3.7356536681       -8.6626727331
 H       -18.3025050921        3.5187674433      -10.3019344684
 H       -18.4265774177        6.4231936283       -9.4647888047
 H       -19.6907986993        5.4961104247       -8.7701891760
 H       -18.3995197526        9.5808474181      -12.6448892173
 H       -19.5834374921        9.9865175902      -11.3820520260
 H       -20.1493082151        9.2993976944      -13.0458519950
 H       -20.4069189676        6.4471466553      -13.4255490967
 H       -21.7645486849        7.4971783623      -12.8246193732
 H       -21.8084944162        5.7879233454      -12.4708147376
 H       -20.8379025304        7.5171414201       -9.2190010255
 H       -22.1511902088        6.9657228174      -10.2724414020
 H       -21.6369701231        8.5507207133      -10.4558453046
 H       -16.9455504142        4.6681069279      -12.4179255583
 H       -15.2518725726        4.8459791558      -12.7321047576
 H       -16.1419921014        6.0281103390      -11.5391443201
 H       -16.4661857779        1.7148388907      -10.9526137230
 H       -15.9468121505        2.4304260233      -12.4965902634
 H       -17.4584832187        2.7427282879      -11.8496805489
 H       -10.9956856130        8.2359482464      -13.8644712079
 H       -11.3412242212        7.6698082153      -12.2281144318
 H       -12.5819353474        7.7366510568      -13.5959013121
 H       -12.1961225657        4.5901655807      -15.2906889930
 H       -11.3788922278        6.0528596807      -15.7442633461
 H       -13.0267960754        6.0820186645      -15.1595000669
 H        -5.3429869105        1.6786587841      -11.2153796707
 H        -6.3798594095        3.2147054521      -11.1713292393
 H        -5.6657982965        2.8300767675      -12.7009407625
 H        -6.0095119242       -0.2035442933      -13.1803110787
 H        -6.6455016033        0.9979820444      -14.2384742216
 H        -7.6062989059       -0.3504306328      -13.6426493486
 H       -12.7279800969        0.4107004156       -9.1940282030
 H       -12.4548655896       -0.0842309081       -7.5537327566
 H       -13.1667288067       -1.2525905010       -8.5252202336
 H       -11.2443742056       -2.7511866974       -7.9102385890
 H       -10.0464317824       -1.6173393240       -7.2983875528
 H        -9.6943208431       -2.6143508729       -8.6233682952
 H       -11.9122649603       -2.9543170788      -15.5544411059
 H       -10.6987116885       -3.2375556939      -16.7920205610
 H       -10.5182708676       -2.0603850289      -15.4575928817
 H       -11.6720011353       -5.8584549983      -15.5606181577
 H       -10.2443416667       -6.4640709959      -14.7846185011
 H       -10.1723479818       -5.8380734491      -16.3765750545
 H        -3.1584358830       -4.0827514091      -15.5818802376
 H        -2.3360032685       -3.9273792219      -14.0124042373
 H        -3.9560486659       -3.3961661417      -14.0925118515
 H        -1.7021121551       -6.5743057428      -14.6028976728
 H        -3.2374735227       -6.7964281146      -15.4636818814
 H        -3.0804201112       -7.6253494438      -13.9259960983
 H        -0.7124888481       -4.4629829192       -7.7516114285
 H        -2.1816865842       -3.4517520422       -8.2629556380
 H        -0.6957026258       -2.7639750807       -7.6430159669
 H        -0.2044859681       -1.9451841221      -11.2303058874
 H        -0.7145912299       -1.3564672804       -9.6273985164
 H        -1.8638044116       -2.0202370555      -10.7679529523
 H         5.0981968711       -6.6226856278       -5.6954484719
 H         3.9980307109       -5.2433796060       -5.4701393625
 H         5.6879964581       -5.1372302024       -4.9347763004
 H         5.0975737344       -2.7793850434       -7.9857712781
 H         6.3869936444       -2.8848051578       -6.7965929189
 H         4.6593510056       -2.8562255709       -6.2778318711
 H         9.7039912909       -3.1568395305      -12.3141968318
 H        10.6818057585       -2.5038548631      -11.0591265571
 H         9.0155833891       -2.8459644547      -10.6659986954
 H        11.1128236712       -6.4409079711      -11.3031613232
 H        12.2313219000       -5.1630935766      -11.4976486651
 H        10.9570612776       -5.3488084693      -12.5739648076
 H        15.9917291286       -6.3666063919       -5.7106342043
 H        15.1600074869       -4.9143398868       -6.3692595151
 H        15.5132281650       -6.2667099239       -7.4214108508
 H        14.1958017281       -8.7879348713       -5.3505373549
 H        14.5745806198       -8.3905953993       -7.0931707986
 H        12.9839846736       -8.5544653181       -6.5399174980
 H        10.7202852761       -2.7934225285       -1.0752119496
 H        12.0075585697       -3.8438061304       -0.7749712808
 H        10.3156359349       -4.3382479956       -0.6119865267
 H         8.7250838046       -4.4492378449       -2.6692986832
 H         9.1718973628       -3.8467062892       -4.1291030126
 H         9.1295253568       -2.7317244874       -2.6907593936
 Na        9.7734288845       -4.9229654431       -5.9240088075
 Na      -11.6802799798        2.0503830904      -11.5302754949
