232

 C        12.4427316338       -2.2385885221       -3.6263842590
 C        11.3501133312       -3.2816951932       -3.8298709888
 O        10.6527824589       -3.2941873038       -4.8208618761
 C        11.0530027598       -4.3442874940       -2.7200711465
 C        11.3246092927       -5.8916649696       -3.0776084905
 O        10.6485150518       -6.5481940696       -3.8157124648
 C        12.4304294600       -6.7384500339       -2.4514458576
 C        13.3671501459       -7.1791483818       -3.6848629274
 C        14.0130183574       -6.0283357391       -4.3951680572
 O        13.9460462123       -4.9165025245       -3.8933121828
 C        14.4740637801       -6.2121475599       -5.8836794638
 C        13.2199934702       -5.7862326634       -6.7852936478
 O        12.2884494877       -6.5081554245       -6.7812136926
 C        13.2973894106       -4.5999465276       -7.8404783968
 C        12.3930362132       -5.0287681860       -9.0296604406
 C        10.8332660505       -4.8546851531       -8.9437884701
 O        10.1359344493       -4.9216413091       -7.9796373250
 C        10.1763669577       -4.6178770268      -10.3761067137
 C         8.6124008806       -4.9421606296      -10.3517892954
 O         8.1413180241       -5.4753710540      -11.3056070615
 C         7.6416562708       -4.5047871393       -9.2286860156
 C         7.2583273443       -5.7043429166       -8.3231587759
 C         6.7477979792       -5.2913934579       -6.8707513652
 O         7.4645120142       -5.4756770153       -5.9073467708
 C         5.4633978556       -4.5098183580       -6.8843363144
 C         4.3822016532       -4.9562304857       -8.0101066246
 O         4.3517533294       -6.0805677326       -8.5046933602
 C         3.3303827969       -3.8726651990       -8.4566725063
 C         2.1911561779       -4.7016366694       -9.1670098390
 C         1.1451090638       -3.7368989899       -9.7986839451
 O         1.5443999617       -2.6821955572      -10.2178203941
 C        -0.5045671151       -3.9531518783       -9.7153770549
 C        -1.1020614936       -5.2122321682      -10.6469971688
 O        -0.4049407929       -5.9441950551      -11.2324387749
 C        -2.5875922423       -5.5918661629      -10.2624756795
 C        -3.3262082224       -6.0413012173      -11.5241810299
 C        -4.0394252871       -5.0758676271      -12.4499678986
 O        -4.5922900018       -4.0355454213      -12.0366562786
 C        -4.1299166809       -5.3730632739      -13.9452258403
 C        -5.6642955094       -5.4478412097      -14.3111923709
 O        -6.1345879889       -6.5541691923      -14.4079215238
 C        -6.4970449085       -4.2021670791      -14.6716852974
 C        -7.9251409141       -4.3233248831      -14.1461889243
 C        -8.9265911459       -3.4269874870      -14.8651977773
 O        -8.7619027171       -2.2535880801      -15.3185992433
 C       -10.4736191453       -3.9589122727      -14.6176097775
 C       -10.7899431871       -3.8957703515      -13.0892409664
 O       -10.6980979299       -4.8164924718      -12.3401149218
 C       -11.0337938897       -2.4616223553      -12.4306369767
 C       -11.2413722132       -2.4817917781      -10.8676918532
 C       -11.5444620456       -1.0562529263      -10.4776445919
 O       -12.0061012029       -0.3283398715      -11.3255325377
 C       -10.9953313102       -0.4746903743       -9.0938800387
 C        -9.8267981116        0.4096505373       -9.5317392904
 O       -10.0512633084        1.6072092433       -9.7666213953
 C        -8.3826459615       -0.0695189264       -9.3670397880
 C        -7.2805700127        0.4858514847      -10.3367418805
 C        -7.3733412525        0.0829092304      -11.7868740744
 O        -7.5463613580       -1.0777481803      -12.1629549160
 C        -7.2224386332        1.2041660338      -12.8649149569
 C        -8.4856022358        2.1557161507      -13.0410356652
 O        -9.5561268649        1.7763099063      -12.6201841152
 C        -8.3659508923        3.5154503637      -13.7658635156
 C        -9.6767031427        4.0279723408      -14.2716593885
 C       -10.2112071328        5.2302282496      -13.3685790014
 O        -9.4809427008        5.5526289255      -12.4550652072
 C       -11.6759196257        5.8180847890      -13.6237172556
 C       -12.5293115567        5.1025715256      -12.6173959875
 O       -12.7455571194        3.9601775044      -12.8713190751
 C       -12.9428928631        5.7753834519      -11.3166895515
 C       -13.4803684905        4.7729354441      -10.2448637581
 C       -14.1781174101        3.3971697884      -10.6310088694
 O       -13.7262008892        2.2626644818      -10.5345180432
 C       -15.7033797121        3.6168296878      -10.6871839213
 C       -16.4501607029        4.1750192877       -9.2890030333
 O       -15.9658056896        5.1588815393       -8.7633690461
 C       -18.0291063046        3.8916685867       -8.9871690092
 C       -18.8666561320        5.1718580938       -9.1324038808
 C       -19.3998177274        5.4229538558      -10.5554004464
 O       -19.2432577838        4.6938502922      -11.5196513063
 C       -20.0692515056        6.7925418889      -10.8858546349
 C       -18.8633989890        7.6297890890      -11.4652215286
 O       -17.7631833915        7.4384300544      -11.0854080770
 C       -19.2906784975        8.7198442723      -12.4317638888
 C       -21.2434389253        6.3352470716      -11.8385874418
 C       -20.6774669271        7.4825710937       -9.7066051757
 C       -15.9797037589        4.7365580292      -11.7123235484
 C       -16.2807340314        2.2181495654      -11.1422116722
 C       -11.6406722940        7.3271290382      -13.3906021838
 C       -12.1831428881        5.5504431849      -15.0572557901
 C        -5.8802519140        1.8900135737      -12.7975885378
 C        -7.2725570268        0.4251239104      -14.3141394539
 C       -12.0994380981        0.3435763564       -8.4048998992
 C       -10.6765626688       -1.6420789964       -8.0471046917
 C       -11.3572911796       -3.1088852569      -15.4515632577
 C       -10.5489245852       -5.4006669723      -15.0065455004
 C        -3.3504284232       -4.2400800698      -14.7324589390
 C        -3.5287419172       -6.7202478630      -14.4176560095
 C        -0.7386322043       -4.4387205731       -8.1856385043
 C        -1.1650870134       -2.6496494114      -10.1344269193
 C         4.8401426717       -4.7536735287       -5.4711342680
 C         5.8610508379       -3.0399095953       -7.1092053538
 C        10.3731117396       -3.0913485803      -10.6668868589
 C        10.9784653607       -5.3497679422      -11.5639752516
 C        15.7879290500       -5.2307844944       -6.0664402228
 C        14.7880613925       -7.6728767105       -6.3331387106
 C        11.7816188602       -4.1001026261       -1.3622264756
 C         9.4185109429       -4.4850253854       -2.5362831453
 H        13.3120448108       -2.5017655739       -3.1640572324
 H        11.9737191065       -1.4040130872       -3.1183585686
 H        12.5737539769       -1.8226049930       -4.5885069758
 H        11.9458904055       -7.6353239881       -1.9596713275
 H        12.9509544469       -6.3431220169       -1.6130001216
 H        12.9461105934       -8.0598177515       -4.2539543124
 H        14.2951339410       -7.7053689834       -3.2177309611
 H        14.3183648245       -4.5655228478       -8.2221115680
 H        13.1461676403       -3.5638796758       -7.3863681969
 H        12.5631942796       -6.0653578255       -9.1861889784
 H        12.7938125746       -4.6892993756       -9.9956883650
 H         6.8174857572       -4.1170359139       -9.9447784265
 H         8.0567632539       -3.6345463732       -8.6550850808
 H         8.1798299659       -6.2868892436       -7.9882543058
 H         6.6262323198       -6.4517381651       -8.8314170306
 H         3.8725438412       -3.2287714449       -9.1452377738
 H         2.9584376520       -3.2243394020       -7.6678535479
 H         1.7444709912       -5.3160796692       -8.3981950994
 H         2.7246449297       -5.2547234337       -9.9486115391
 H        -3.0269572433       -4.7514562791       -9.8181936263
 H        -2.5847092376       -6.4564696301       -9.6100952064
 H        -4.1955985557       -6.6713089001      -11.1713330192
 H        -2.7603487617       -6.8399135390      -12.1766920960
 H        -6.4874946947       -3.9749199998      -15.6589411013
 H        -5.9946891831       -3.4465777567      -14.1230958564
 H        -7.9422465481       -4.0093132226      -13.1022311547
 H        -8.3164419678       -5.3725548360      -14.0916196878
 H       -11.8367043468       -1.9757687605      -12.9245932891
 H       -10.1673272357       -1.8201707655      -12.6947844142
 H       -10.2152193816       -2.7775479970      -10.4616793157
 H       -11.8497783844       -3.2147930357      -10.4325142420
 H        -8.3251013602       -1.1762701575       -9.4490571419
 H        -8.0798837102        0.1820241814       -8.3086642074
 H        -6.2382442671        0.1500026005       -9.9501808893
 H        -7.1392391363        1.5565264406      -10.3420479039
 H        -7.5990403442        3.4646670047      -14.4104832544
 H        -8.0660432736        4.1836053275      -12.9543771500
 H       -10.4970984275        3.2926118551      -14.4639327291
 H        -9.5579718144        4.3985115039      -15.3195475768
 H       -13.5865868506        6.6108154369      -11.6585487767
 H       -12.1500129901        6.3040813079      -10.7951475873
 H       -14.2700457241        5.1474247780       -9.4672459006
 H       -12.6062003537        4.4233730260       -9.6143465010
 H       -18.0898850556        3.5804410293       -7.9174639170
 H       -18.4583272118        3.1016114599       -9.6512531680
 H       -18.1969148568        5.9808413461       -8.8972299427
 H       -19.6748748775        5.1614326613       -8.4325362405
 H       -19.6651582495        9.4200103891      -11.6466225916
 H       -20.0555752132        8.2957860969      -13.0294651012
 H       -18.5127109136        9.0530816546      -13.1252017523
 H       -20.9322931569        6.0364092799      -12.8514012341
 H       -21.8639995221        7.2596492651      -12.0104907861
 H       -21.7554935406        5.5329649843      -11.4377421191
 H       -19.9358341607        7.7251854989       -8.8941670189
 H       -21.4311380752        6.8441851627       -9.1946335116
 H       -21.1104009165        8.5505949412       -9.8746682704
 H       -16.8529609835        4.3575887319      -12.1858564933
 H       -15.1714222506        4.9631850075      -12.3644558435
 H       -16.2267969428        5.6856197706      -11.2602625055
 H       -16.9888806336        1.8085944982      -10.4196144364
 H       -15.4962346781        1.4192524962      -11.2909018282
 H       -16.8577010324        2.3506424654      -12.0249807116
 H       -11.2841369810        7.8504585226      -14.2596795417
 H       -10.9912220621        7.5831517356      -12.5568137794
 H       -12.5922588368        7.7052966145      -12.9757073262
 H       -12.6661300179        4.5803238222      -15.2136110794
 H       -11.3079831353        5.5650404336      -15.8054921404
 H       -12.8504293565        6.3302017280      -15.4316822132
 H        -5.0467540660        1.1105616422      -12.9620923590
 H        -5.8927587362        2.2979113795      -11.8930987783
 H        -5.7315585471        2.5996839493      -13.5827031399
 H        -6.3387794942       -0.1789880596      -14.4413143128
 H        -7.0367399859        1.1931798692      -15.1564180404
 H        -8.1674028024       -0.0894699606      -14.5539182446
 H       -12.4062338424        1.2126246645       -8.8884836781
 H       -11.6805024682        0.6574814011       -7.4393228334
 H       -13.0642172289       -0.1504900714       -8.2456134609
 H       -11.3652315103       -2.4803612473       -8.0836682461
 H       -10.7461714027       -1.2693215935       -6.9470538385
 H        -9.6750163981       -1.9874918217       -8.3129173867
 H       -12.4093240200       -3.2029933733      -15.2070550971
 H       -11.3775916738       -3.4181947720      -16.4937939571
 H       -11.0142216259       -2.0640105421      -15.2979302745
 H       -11.5916829580       -5.7160841072      -15.0708350141
 H       -10.2025737341       -6.0810276811      -14.2373116858
 H        -9.9831415892       -5.7033393247      -15.8612187048
 H        -3.4696832429       -4.3142137297      -15.8242130461
 H        -2.3497570911       -4.5484716006      -14.5236401111
 H        -3.4081479160       -3.1980359959      -14.4255995236
 H        -2.4767561179       -6.8790977321      -14.2829325532
 H        -3.5896215876       -6.7016235906      -15.5420487422
 H        -4.1965731651       -7.5600195293      -14.1314903600
 H        -0.7297949891       -5.4479861306       -7.9904050282
 H        -1.7389327412       -4.1665042972       -7.9414870412
 H        -0.1531612353       -3.8280205067       -7.4636735799
 H        -0.5564815727       -2.2827792828      -10.9786783239
 H        -0.9834616336       -1.8329268719       -9.3839087699
 H        -2.2881356532       -2.7814025849      -10.3259511588
 H         4.6304935047       -5.8283994682       -5.3039480211
 H         3.8641430382       -4.1992992580       -5.4523300888
 H         5.4165083248       -4.3361656556       -4.6099993204
 H         5.5938285445       -2.7888379812       -8.0898461787
 H         6.9914152357       -3.0125276819       -6.9159841586
 H         5.4410603536       -2.4679506720       -6.2826354232
 H        10.3219662183       -2.9391808853      -11.7731251194
 H        11.3323553149       -2.8139944354      -10.1560493838
 H         9.5791675426       -2.4678390973      -10.2587093323
 H        11.1909707282       -6.4521928005      -11.3568320490
 H        11.8635883244       -4.7869702969      -11.9063542460
 H        10.2500045187       -5.3731027610      -12.4233437515
 H        16.5292811009       -5.6522892948       -6.6911352412
 H        16.1741244399       -5.0209106831       -5.0450275247
 H        15.4679684994       -4.2578398020       -6.5032584526
 H        15.4972226192       -8.1606335825       -5.6402757384
 H        15.2569252518       -7.7226290729       -7.3278803043
 H        13.8380099492       -8.2543547011       -6.3003937285
 H        11.4405076397       -3.1024533104       -1.0213287117
 H        12.9089136638       -4.1569463344       -1.4263683065
 H        11.5198091796       -4.8499337940       -0.6451814805
 H         9.2777965967       -5.3690054348       -1.8984933887
 H         8.9530978523       -4.5654492378       -3.5386215782
 H         8.9478212948       -3.5971276121       -2.0790525666
 Na        9.9528332668       -5.3963518739       -5.7940064682
 Na      -11.5622019349        2.2231624244      -11.5317394760
