232

 C       -17.8207295865       -5.9971092956       -3.1120161835
 C       -17.9028058840       -7.5188222291       -2.7198871922
 O       -16.9922802978       -8.2508597991       -3.0991766950
 C       -19.2328428813       -8.0191207243       -2.0229157935
 C       -18.6914639583       -8.7790979595       -0.7041266311
 O       -18.3347188154       -9.9025926266       -0.8234066878
 C       -18.6299401519       -8.0297687245        0.5803855948
 C       -17.3283950646       -8.3671779906        1.3728675304
 C       -16.1482987344       -7.5212675033        0.8673884085
 O       -16.4137684744       -6.3924860890        0.4025759440
 C       -14.6823078586       -8.1183599648        0.8638448540
 C       -14.6784043775       -9.0321184027       -0.4242742717
 O       -15.4449955129       -9.9640596352       -0.4341676194
 C       -13.7844135658       -8.6539486959       -1.6919784322
 C       -12.9791497950       -9.9367502898       -2.0658392793
 C       -13.4772959076      -10.5830042869       -3.4389704564
 O       -14.6760008513      -10.7861129628       -3.5674021039
 C       -12.5173019265      -10.8724025733       -4.6250082660
 C       -12.6240399976       -9.5357130457       -5.5097397311
 O       -12.6925132289       -8.4795929690       -4.9094504944
 C       -12.4613407440       -9.6002878262       -7.0785715062
 C       -12.6072835703       -8.0680571265       -7.7003515853
 C       -12.7561550434       -7.9438152255       -9.2503414539
 O       -12.4436520305       -8.7869507147      -10.0734086213
 C       -13.0701689579       -6.5089385860       -9.8109916248
 C       -11.6741735329       -5.6864817112       -9.5282808124
 O       -11.0054956001       -5.9832226975       -8.5935403566
 C       -11.2780258085       -4.4331253687      -10.3417727504
 C       -10.4670645019       -3.5243600736       -9.4157985699
 C       -10.6502636157       -1.9900082123       -9.6673051431
 O       -11.7283017817       -1.4238863531       -9.7802115324
 C        -9.2562539795       -1.0944467521       -9.7156291239
 C        -8.2063463654       -1.6962483454      -10.9207548048
 O        -8.5103815149       -2.7276411274      -11.5241134235
 C        -7.0890415915       -0.7618548918      -11.2039072003
 C        -5.9279995236       -1.4854602200      -12.0765596836
 C        -4.6678870505       -0.5894407942      -12.3714864932
 O        -4.5915780880        0.5483378990      -12.0010502016
 C        -3.4949428160       -1.3335474338      -13.0435606291
 C        -2.3900282346       -1.5988345016      -12.0433720977
 O        -2.5434982722       -2.5215327203      -11.2636538993
 C        -1.0616546156       -0.8274402619      -12.0429067860
 C        -0.0473066507       -1.2946696043      -10.9888468186
 C        -0.1134954547       -0.4188542938       -9.7138505783
 O        -0.7682812132        0.5474776185       -9.5993430806
 C         0.9664600199       -0.7106361191       -8.6187173902
 C         2.2829535232       -0.1280148767       -9.4549125725
 O         2.8184915491       -0.9525123876      -10.1116643503
 C         2.5246993427        1.3313827306       -9.2813434634
 C         3.9757433783        1.6991862821       -9.4311353564
 C         4.2335749789        3.2096943057       -9.1725810714
 O         3.3242009565        3.9495101602       -8.7558056369
 C         5.6164290471        3.8591394719       -9.6161598741
 C         5.3797575657        4.5822432258      -11.0212639070
 O         6.1355792918        4.1898924663      -11.9368013768
 C         4.3404341778        5.6673177454      -11.1091865944
 C         4.9631428909        6.9761030660      -11.6590945625
 C         4.7850808343        6.9851565577      -13.1758685173
 O         4.4270690444        6.0186828780      -13.8641521078
 C         5.1711681616        8.3247375399      -13.9116807072
 C         6.2398025035        7.9122243687      -15.1503435197
 O         6.0097089186        8.4035605743      -16.1929023889
 C         7.3741543908        6.9229563532      -14.8538393353
 C         7.9779489137        6.4361501877      -16.1333453137
 C         7.2561799642        5.2589908252      -16.8119449734
 O         6.3669939554        4.5906318732      -16.3294651527
 C         7.7211996444        4.8775819116      -18.2839978757
 C         9.1766779892        4.3215931202      -18.2474418059
 O         9.6840247047        4.1485756007      -17.1596379560
 C         9.8726364127        3.7684181985      -19.5655637466
 C        11.0515910116        2.7240336791      -19.3327337146
 C        10.3995066032        1.3881974879      -19.0225040985
 O         9.4312290775        1.1078244610      -19.6970882806
 C        10.8947642855        0.2741220513      -17.9140240721
 C        10.3925148541        0.6460744557      -16.4731784680
 O        10.9036307040        0.1414180825      -15.4833764015
 C         8.9713711243        1.2189128339      -16.2072510639
 C         7.9654530715        0.2819479556      -15.5440485989
 C         6.6794095653        1.1141988793      -15.1190803602
 O         6.7430424594        2.3401680564      -15.2153352201
 C         5.3629693619        0.4966544361      -14.6060539740
 C         4.1819547272        1.2029384255      -15.4597982558
 O         3.7417600405        2.2651600583      -15.1928793856
 C         3.6590122629        0.3904042140      -16.6689335321
 C         5.3481643972       -1.0789862510      -14.5991540062
 C         5.2061700719        1.0929164245      -13.0510699804
 C        10.2510407691       -1.1848172767      -18.1392278610
 C        12.4298842733        0.1411902733      -17.7004119485
 C         6.7451735555        3.7834918661      -18.9310254445
 C         7.4913417645        6.1448208990      -19.2990380845
 C         3.8220107410        8.7857927951      -14.5544242701
 C         5.7696615172        9.6174205053      -13.1452796787
 C         6.1052235166        4.8911765267       -8.5310492738
 C         6.7147131679        2.8018219516       -9.7488778622
 C         0.6191094659        0.0809481880       -7.3621856929
 C         1.0443430208       -2.1674708398       -8.2375258058
 C        -3.7812149687       -2.7167507431      -13.6617709312
 C        -3.2467065050       -0.2441713022      -14.2580954636
 C        -9.8251758830        0.4118458932      -10.1115101392
 C        -8.4697036926       -0.9922952484       -8.4266362129
 C       -13.4508791269       -6.5508827499      -11.3471141442
 C       -14.1886725800       -5.7797632898       -8.9523459381
 C       -11.1006768661      -11.0696949163       -4.1058213817
 C       -13.0739607039      -12.1673020582       -5.3048146689
 C       -13.5889139032       -7.0352395479        0.8865262074
 C       -14.3015035848       -9.1317806288        1.9666152000
 C       -20.2928706179       -6.8776625366       -1.7451034687
 C       -19.8688215982       -9.0650925088       -2.9587235636
 H       -17.0638335588       -5.5263708913       -2.5255639442
 H       -18.8245802191       -5.5776839758       -2.9477530498
 H       -17.6242444843       -5.8625141471       -4.2085421933
 H       -19.5535130477       -8.1820017249        1.2117313207
 H       -18.6067776828       -6.9230698436        0.4518047614
 H       -17.1295498035       -9.4683715176        1.3774532992
 H       -17.5343175113       -8.1452532537        2.4561454208
 H       -13.0577103311       -7.8526470994       -1.5350892235
 H       -14.3560317765       -8.2776098225       -2.5201612547
 H       -13.0308491202      -10.7045668933       -1.2599772363
 H       -11.8792824330       -9.5624601779       -2.0857744769
 H       -13.3766307841      -10.0622387820       -7.4483806458
 H       -11.5610430043      -10.0608247860       -7.5148710004
 H       -11.7368012813       -7.4925421850       -7.4364618148
 H       -13.4991692444       -7.6075406121       -7.2871539351
 H       -12.1281452755       -3.8837848753      -10.7061226956
 H       -10.6524739878       -4.7359052983      -11.1939047079
 H        -9.4923751899       -3.9799734445       -9.4935359500
 H       -10.8470267126       -3.6944937071       -8.3906417267
 H        -6.6565440273       -0.3846586692      -10.3343756034
 H        -7.5226668371        0.1559102684      -11.6937297825
 H        -6.4056396235       -1.8039409382      -12.9984267209
 H        -5.5104764594       -2.4159791510      -11.6228985861
 H        -1.3721536225        0.1952551170      -11.7994735379
 H        -0.6868678193       -0.9169070142      -13.1029799085
 H         0.8625138712       -1.5499356690      -11.6303828363
 H        -0.3172374626       -2.2874439626      -10.5877967085
 H         2.2300935638        1.5987907868       -8.2616405573
 H         1.8733948049        1.8118034841      -10.0774705636
 H         4.0893777091        1.4750258793      -10.5015756500
 H         4.6174301643        1.0699861650       -8.8349002735
 H         3.7126075287        5.7547935364      -10.1262481270
 H         3.4763136017        5.4048741821      -11.8453355136
 H         5.9740510955        7.2508011817      -11.3390077471
 H         4.2357555810        7.7184038027      -11.3356342050
 H         6.9651740340        6.0527651078      -14.2085205623
 H         8.0951383446        7.4622219250      -14.2289249152
 H         9.1243578761        6.1639675102      -16.1332915908
 H         7.8495131586        7.1926410640      -16.7603112413
 H        10.3001307999        4.7710728938      -19.9580516471
 H         9.1928924103        3.4810746222      -20.3273848871
 H        11.7118902436        3.2034095986      -18.6222175074
 H        11.5487413342        2.5196210956      -20.3322405957
 H         8.4928744850        1.4446397599      -17.1504974557
 H         9.0857259688        2.2330205979      -15.6692622069
 H         8.3988782219       -0.2875447232      -14.7349778992
 H         7.8052152905       -0.4844517546      -16.3406249348
 H         4.6371877446        0.0744286781      -17.1258658767
 H         3.1599613474        1.0442745537      -17.3801542920
 H         3.0717689120       -0.4079118302      -16.3735407361
 H         4.3194525697       -1.4060653316      -14.2347153754
 H         6.1702818316       -1.4518634282      -13.9924848419
 H         5.3789613445       -1.5734536080      -15.6107375439
 H         4.0920760579        1.1463432732      -12.7808525215
 H         5.5990276246        2.0146218380      -12.8586574968
 H         5.5442381472        0.2830468367      -12.4285460910
 H        10.3109422836       -1.7135494023      -17.1903996762
 H        10.6310100226       -1.5634998642      -19.0802387607
 H         9.2054471605       -0.9379864538      -18.3048537684
 H        12.7767422149       -0.5347372674      -18.4484000906
 H        12.6193654982       -0.3094944957      -16.7441147428
 H        13.0215584220        1.0351797131      -17.5973512187
 H         5.7581171338        4.2918093852      -18.9200933200
 H         6.6760582284        2.9628259490      -18.2726301134
 H         7.0007482092        3.5454427583      -19.9437918644
 H         7.7347102461        7.1538218909      -18.8564139831
 H         6.5511213029        6.0693050942      -19.6945403195
 H         8.0928293703        5.7845868085      -20.1860464847
 H         3.9337420759        9.3255141047      -15.4835958309
 H         3.1339887146        9.3501876130      -13.8315725968
 H         3.3069639779        7.9010587556      -14.8924309846
 H         5.9175971744       10.4852492010      -13.7192362348
 H         6.6434615324        9.3997337851      -12.6044166219
 H         5.0612583885        9.8255648546      -12.3343795583
 H         6.4834865814        4.2754660391       -7.6934781354
 H         5.2285085587        5.3718441090       -8.2445880791
 H         6.8120634637        5.4519515981       -9.1490418553
 H         7.5929671710        3.1042153600      -10.3372682819
 H         6.3461278304        1.9488781121      -10.3245427349
 H         6.9079031145        2.3521281683       -8.7974767759
 H         0.5397866122        1.1554925359       -7.7696173875
 H         1.3880792913        0.0727167347       -6.5942572838
 H        -0.3222180391       -0.1887215873       -6.8543111013
 H         0.0438293834       -2.4908868482       -7.9925693237
 H         1.7669872724       -2.3023002433       -7.4305783062
 H         1.3364739461       -2.7363959429       -9.0530580970
 H        -3.8098928686       -3.3996473170      -12.8400757005
 H        -2.9949916555       -2.9955009213      -14.3482810939
 H        -4.7141174959       -2.6983632811      -14.2267187913
 H        -2.9499453796       -0.7044550722      -15.1702099768
 H        -2.5712285309        0.5841851815      -13.9231009632
 H        -4.1117304410        0.4012984016      -14.6077231111
 H       -10.6606886186        0.7879602965       -9.6260740917
 H       -10.0017789370        0.4203799841      -11.2273124274
 H        -9.1004278384        1.1953077799       -9.9611288049
 H        -9.1297724206       -0.8492778357       -7.6090598175
 H        -7.7502934194       -0.1509900161       -8.4518919918
 H        -7.9147063353       -1.9250143557       -8.2590624249
 H       -13.5434920140       -5.5044084121      -11.6509514211
 H       -14.4540879526       -6.9221714533      -11.5276457113
 H       -12.6481019657       -7.0229349111      -11.9656222301
 H       -15.1180880180       -6.4456646575       -9.0047850237
 H       -14.4402566161       -4.8148418006       -9.4362818105
 H       -13.9754177363       -5.7621718715       -7.9261769022
 H       -10.8497980026      -10.7771992508       -3.0745634544
 H       -10.2565506607      -10.7265672138       -4.7225460386
 H       -10.8943683086      -12.1195109380       -3.9831142852
 H       -14.1493902400      -12.1488040797       -5.6124113815
 H       -12.9401893634      -13.0327002002       -4.6077197760
 H       -12.4677336218      -12.3416914138       -6.2211983651
 H       -13.5517184666       -6.4360216315       -0.0041387539
 H       -12.6230164888       -7.4940655095        1.0528400306
 H       -13.6859917603       -6.2799902730        1.6550757221
 H       -14.9100123921       -9.9464108568        1.9628203394
 H       -14.3389952003       -8.7797484145        2.9735772768
 H       -13.2138110825       -9.4512901289        1.8419324183
 H       -19.9368573248       -5.9501239945       -1.2109029097
 H       -21.1275332420       -7.3546510028       -1.3033300545
 H       -20.6134557122       -6.5556244201       -2.6249259688
 H       -20.8304985132       -9.3531437105       -2.6028701287
 H       -19.1474840452       -9.8502022155       -3.1726565083
 H       -19.9401462170       -8.6154145759       -3.9651875319
 Na      -16.6278198459      -10.3463613873       -2.5621982429
 Na        5.0623170925        3.8205537963      -14.3728215934
