232

 C        11.7450427265       -2.1873906988       -3.7637780061
 C        11.1477133747       -3.6287998824       -3.8302486300
 O        10.6464301138       -3.9869666027       -4.9079176022
 C        11.0009083030       -4.5153401009       -2.4957046111
 C        11.4374122763       -5.9827388426       -3.0377271259
 O        10.9473721501       -6.3857182852       -4.0806895807
 C        12.6669360841       -6.8024838518       -2.4560517259
 C        13.6931097124       -7.1221257626       -3.5788801076
 C        13.9286217878       -5.8715087745       -4.4228608017
 O        13.5856994988       -4.7142402921       -4.1222346111
 C        14.5169970543       -6.0003227396       -5.8634131611
 C        13.2295416693       -5.9001491729       -6.6982740948
 O        12.2773337339       -6.6103791351       -6.4574437026
 C        12.9779714493       -4.7294323684       -7.7178810306
 C        12.6692336483       -5.0205666715       -9.2024196295
 C        11.0852632857       -5.0944889955       -9.3075589270
 O        10.4569445258       -5.5822376095       -8.3636297471
 C        10.2762834278       -4.5197995691      -10.5342710447
 C         8.7096605584       -4.7750307893      -10.3588926023
 O         8.0427980261       -5.2238083302      -11.2638695271
 C         7.9960883031       -4.1978258572       -9.0540101624
 C         7.3709647136       -5.3041350242       -8.2375134966
 C         6.7815735448       -4.8205792420       -6.9012562112
 O         7.4714377289       -4.8402444645       -5.8845639521
 C         5.3414066288       -4.3349841101       -6.9874560520
 C         4.4264396555       -4.8933782906       -8.0599008564
 O         4.4727299312       -6.1139107207       -8.3288973209
 C         3.3231893064       -4.0163583078       -8.6304766889
 C         2.1773477395       -4.9321429219       -9.1632285156
 C         1.0057248174       -4.0302290044       -9.7417888819
 O         1.3312781542       -3.2861658362      -10.6769807558
 C        -0.4913354837       -4.2528567045       -9.3644073230
 C        -1.1288123884       -5.2560667847      -10.2977175812
 O        -0.4362900724       -5.9264658174      -10.9911840310
 C        -2.7061175502       -5.5098649413      -10.2080468942
 C        -3.1161938513       -5.9479973160      -11.6739878281
 C        -3.6637496442       -4.9024941634      -12.6268114302
 O        -3.8146422305       -3.7607315782      -12.2334175464
 C        -4.0288879885       -5.2296832830      -14.2157774973
 C        -5.5721762421       -5.5258584406      -14.2641759547
 O        -6.0746837096       -6.6465383597      -14.3574881147
 C        -6.5739385477       -4.2590903494      -14.4304606840
 C        -8.0266689350       -4.2247230760      -13.8667366303
 C        -9.0571380299       -3.4761438687      -14.7925241411
 O        -8.7655351842       -2.7230573223      -15.7424331483
 C       -10.5096307358       -3.6866177322      -14.5138229740
 C       -11.0191151947       -3.5791622139      -12.9728453325
 O       -10.9497724840       -4.4904140724      -12.2223729864
 C       -11.5114033792       -2.2082571095      -12.5203868834
 C       -11.4201689302       -2.2435796740      -10.9982936598
 C       -11.6128777257       -0.8207683277      -10.5208162158
 O       -12.0566472346       -0.0274098357      -11.3144967127
 C       -10.9263764179       -0.2654293185       -9.0935090627
 C        -9.6726306707        0.6134545436       -9.6149867281
 O        -9.8491970229        1.8528423086       -9.6764166138
 C        -8.2731119485       -0.0513305382       -9.8091984822
 C        -7.3829386270        0.6191593288      -10.8013629185
 C        -7.5998465401        0.0719004959      -12.1576889972
 O        -8.0919023381       -1.0638463504      -12.3144337216
 C        -7.3395344458        0.9768107576      -13.3789978786
 C        -8.5038967788        2.1104586766      -13.2681904802
 O        -9.5790230819        1.9125278202      -12.7362099785
 C        -8.2640477771        3.4139282840      -13.9885210001
 C        -9.4690176948        4.1726525156      -14.4817003430
 C       -10.0923534218        5.0883033592      -13.4096864354
 O        -9.4292659681        5.3374811663      -12.4493767438
 C       -11.5969185341        5.5824432452      -13.5563269513
 C       -12.4178156733        4.7679957703      -12.5520890266
 O       -12.5104274877        3.5861054694      -12.6459961771
 C       -13.0136733001        5.5868604351      -11.4432936387
 C       -13.4587936976        4.7270394328      -10.1896163083
 C       -14.2828471388        3.4109018409      -10.4748565313
 O       -13.7058909631        2.3413375903      -10.4522988686
 C       -15.8007225605        3.4034340694      -10.6562633725
 C       -16.4661508883        4.0783301186       -9.2119325382
 O       -15.7497354208        4.7193143194       -8.4436571526
 C       -17.9677588588        3.9067402509       -8.7866858299
 C       -18.8657872561        5.1152841052       -8.8950840627
 C       -19.3075976333        5.3540638659      -10.2864889649
 O       -19.0983895368        4.4864667602      -11.1882099405
 C       -20.1326683197        6.8406477580      -10.5790694711
 C       -19.0218284655        7.8128951971      -11.2582571957
 O       -17.9125118791        7.8629549859      -10.8037725087
 C       -19.4105433807        8.6231140968      -12.4486220137
 C       -21.1582459482        6.4381385051      -11.5836056012
 C       -20.7683604872        7.4485565755       -9.2628165543
 C       -16.0438782130        4.2284012919      -11.9532678465
 C       -16.3606368262        1.8934746649      -10.8042590652
 C       -11.7749036749        7.1687652141      -13.2984465478
 C       -12.0917594331        5.1517853966      -14.9955506607
 C        -5.9579798036        1.7034707242      -13.2207399637
 C        -7.3314842394        0.1861070919      -14.6077483777
 C       -11.7866143766        0.6971459399       -8.3404045975
 C       -10.3664004278       -1.4739940726       -8.2090236534
 C       -11.4250898225       -2.7583967961      -15.4317558714
 C       -10.7963460264       -5.1788785145      -14.9512216694
 C        -3.4978750586       -4.0427343271      -15.0236099920
 C        -3.3533864355       -6.5178141314      -14.7174670037
 C        -0.6744833411       -4.4195924674       -7.8349381706
 C        -1.2362951173       -2.8571112776       -9.7459720488
 C         4.7532505601       -4.8040018676       -5.5065457258
 C         5.4572998924       -2.7549549956       -7.1589778251
 C        10.3990441384       -2.9895707493      -10.5608061224
 C        10.7786481775       -4.9428690564      -11.9846803896
 C        15.4873535473       -4.9094388471       -6.2034839901
 C        15.1988689065       -7.3552996513       -6.1846139372
 C        11.9624905936       -4.0653874784       -1.3283087467
 C         9.5836857163       -4.5991563941       -2.0151605766
 H        12.8400360703       -2.0388886019       -3.7945739106
 H        11.4095473650       -1.7680187416       -2.8760784925
 H        11.2567547049       -1.5985384328       -4.4274102305
 H        12.1860257312       -7.7486092653       -2.0355166835
 H        13.1728931990       -6.2998503415       -1.6432840195
 H        13.3005270899       -7.9199458211       -4.2417760320
 H        14.6973192664       -7.4810046488       -3.1177947958
 H        13.7874582555       -3.9871904162       -7.7114447923
 H        12.1149142295       -4.1892017081       -7.2942046423
 H        13.0941642144       -5.8598129595       -9.7578582523
 H        13.0573300085       -4.2151717293       -9.8742541722
 H         7.2309029738       -3.5623440375       -9.5379310652
 H         8.7418581170       -3.5719336864       -8.5583580668
 H         8.0684759959       -6.0707742508       -7.8548606753
 H         6.6471944960       -5.7828539772       -8.9454878722
 H         3.7638179625       -3.4203871559       -9.4562986288
 H         2.9358718164       -3.2610111581       -7.9317023584
 H         1.8192344741       -5.5722079005       -8.3702408112
 H         2.5787942508       -5.5078955300      -10.0348946014
 H        -3.0561297789       -4.5516577650       -9.9465599234
 H        -2.8187536038       -6.1542410318       -9.3190569954
 H        -3.7930743266       -6.8504704879      -11.7669808923
 H        -2.2022710842       -6.3731723443      -12.3083285189
 H        -6.6129712902       -4.1815233686      -15.5137828746
 H        -6.0280315062       -3.3732391320      -14.1274164524
 H        -8.1126154408       -3.7698586020      -12.8624412044
 H        -8.4469085328       -5.2861036084      -13.7531006855
 H       -12.5309731891       -2.1276776037      -12.8747384099
 H       -10.9463341973       -1.3848551127      -13.0176017414
 H       -10.3228376268       -2.4787137339      -10.7719251779
 H       -11.8783470369       -3.0379750483      -10.4813933528
 H        -8.3325070686       -1.1325760895      -10.0361159304
 H        -7.7684921045        0.0325714816       -8.8208902193
 H        -6.2431449444        0.4600003073      -10.6102529568
 H        -7.3229282181        1.6895930561      -10.7110667285
 H        -7.5978213022        3.2431591832      -14.7168678934
 H        -7.6892374708        3.8980607305      -13.1932919845
 H       -10.2415565042        3.4542373026      -14.7751266401
 H        -9.2301458129        4.6290843441      -15.4197738624
 H       -13.8174307568        6.2163218515      -11.7091094078
 H       -12.2451827188        6.2068063053      -11.0623043138
 H       -14.0930180550        5.3025310190       -9.4825830679
 H       -12.7007614613        4.2461978617       -9.6175590086
 H       -17.8699824718        3.6861702982       -7.7143450628
 H       -18.4814939890        3.1062448510       -9.3245677642
 H       -18.4397337642        6.0487643192       -8.5133061350
 H       -19.7486748413        4.8177297252       -8.3286015081
 H       -20.4557936009        8.8016632159      -12.3134625353
 H       -19.0929226780        8.1420430244      -13.3009930796
 H       -18.8068378695        9.4827372361      -12.3692967793
 H       -20.6588699661        5.6756960580      -12.2421041029
 H       -21.3529078468        7.2661063291      -12.3117302722
 H       -21.9896237598        5.9054636632      -11.1891780849
 H       -20.0914707124        7.4996689164       -8.3810888518
 H       -21.8041032064        6.9129543277       -9.0771532822
 H       -21.0888324967        8.4528199830       -9.3345896847
 H       -17.0934344692        4.4272686737      -12.1178022091
 H       -15.6842439729        3.5666366320      -12.7348726235
 H       -15.4872186883        5.1607502131      -12.0156630285
 H       -17.1459188252        1.7169993479      -11.5167224713
 H       -16.7079807571        1.5788002231       -9.7812094316
 H       -15.4915082014        1.3133945068      -11.0543459474
 H       -10.9892806882        7.6284703137      -13.8743579829
 H       -11.8326583756        7.5245240560      -12.2888717461
 H       -12.6246100903        7.6321445895      -13.8064902045
 H       -12.0105603651        4.0996706503      -15.1933453524
 H       -11.7571239542        5.8404295788      -15.8198337787
 H       -13.1254744196        5.3496693464      -15.0129351805
 H        -5.2685564808        0.9716981973      -12.8889956426
 H        -6.0555922480        2.5191189104      -12.5339639813
 H        -5.6831564304        2.1599440114      -14.0800808681
 H        -6.4862609587       -0.5171467628      -14.4886315124
 H        -7.2258394770        0.7954312165      -15.5412034858
 H        -8.2649565236       -0.2749776421      -14.8186877718
 H       -12.2328276687        1.5021687158       -8.8595971023
 H       -11.2516363360        1.1394833921       -7.4207082968
 H       -12.6639250332        0.2447808669       -7.9196618773
 H       -11.2641476490       -1.9694584434       -7.8632098411
 H        -9.6825169363       -1.1566787364       -7.3961085536
 H        -9.8932834634       -2.2281916417       -8.7984770906
 H       -12.4793872277       -3.0055746469      -15.1782559014
 H       -11.3474711668       -3.0274499041      -16.4531888567
 H       -11.2232810085       -1.7178510564      -15.2967720898
 H       -11.8097281939       -5.4782249795      -14.6355424773
 H       -10.0792498158       -5.9693329430      -14.4787066191
 H       -10.7350935866       -5.3200166486      -16.0594932306
 H        -3.4054534071       -4.0616784365      -16.1134573229
 H        -2.4906768283       -3.8840185063      -14.6714307315
 H        -4.1684890131       -3.2158247931      -14.8459720007
 H        -2.4010472268       -6.6613139414      -14.4153009272
 H        -3.4660099325       -6.6232190107      -15.8412935448
 H        -3.9028320585       -7.2882487923      -14.2315870501
 H         0.0216933377       -5.0965219046       -7.4144397593
 H        -1.6987140750       -4.7332429541       -7.5829598041
 H        -0.5477365044       -3.4504341992       -7.2350459360
 H        -1.4561984514       -2.7175676954      -10.7598063883
 H        -0.5227248466       -2.1166920464       -9.4467784373
 H        -2.2139125706       -2.8229547648       -9.2636773369
 H         4.5984797983       -5.8411812773       -5.5022757312
 H         3.8298239258       -4.3124032269       -5.1696601950
 H         5.4423380196       -4.4635633893       -4.6938325821
 H         6.4644891436       -2.4706822250       -7.5182993124
 H         5.4341886406       -2.4115166505       -6.0692350378
 H         4.7299789807       -2.3605262659       -7.8621553315
 H         9.4409050123       -2.4961242542      -10.8718297483
 H        11.2434767294       -2.7397564213      -11.2171733674
 H        10.6605016181       -2.5457124550       -9.6028564096
 H        11.1271291044       -5.9821299253      -11.9443956698
 H        11.5822037770       -4.3294267041      -12.3007252322
 H         9.9010547151       -4.8119142793      -12.6747797307
 H        15.5912641721       -5.0354789067       -7.2479306542
 H        16.4250873654       -5.0363804521       -5.6294403587
 H        15.1001299684       -3.8726077014       -5.9653258278
 H        15.7333909116       -7.7218016737       -5.3060205015
 H        16.0491739917       -7.1570124297       -6.7868962386
 H        14.5360784380       -8.1671554194       -6.5258719791
 H        11.6202701429       -3.1089826581       -0.9884147003
 H        12.9766690468       -4.0812963174       -1.6657835484
 H        11.9377317717       -4.7910545220       -0.5616856080
 H         9.6152196449       -5.0467211257       -1.0044397012
 H         9.0757753792       -5.2617407724       -2.7177785410
 H         9.0338925267       -3.6902906656       -2.0658049452
 Na        9.7149087883       -5.9146569432       -6.0147390889
 Na      -11.4491280598        2.1853708503      -11.2240222220
