232

 C        11.5045657819       -2.1939666453       -3.6008330882
 C        11.0859745675       -3.6147128116       -3.7972120248
 O        10.6566242869       -3.9901347505       -4.9160084076
 C        11.1236912530       -4.6052302243       -2.5483166103
 C        11.6083100746       -5.9962223994       -3.0465459410
 O        10.8544129587       -6.4681164656       -3.9157175357
 C        12.7279958021       -6.7431209198       -2.4942889522
 C        13.6794497160       -7.0451898427       -3.6489743205
 C        13.9535295601       -5.8381228805       -4.4923538222
 O        13.5471983731       -4.7389991979       -4.0872199672
 C        14.6325655772       -5.9505264923       -5.9677610977
 C        13.1534092248       -5.8661996221       -6.7419845278
 O        12.3002479813       -6.7010887420       -6.4071592060
 C        12.8992313057       -4.5699423258       -7.6263527672
 C        12.5210324748       -5.0223418299       -9.0750066804
 C        11.0232427823       -5.1419176411       -9.3852105536
 O        10.3052858637       -5.7004150739       -8.5329872446
 C        10.3252955957       -4.4443813374      -10.6344312300
 C         8.7499195500       -4.6841532924      -10.3975809490
 O         8.0789569291       -5.2761904694      -11.2202858717
 C         8.1494742102       -4.1340601414       -9.0951743591
 C         7.3717992176       -5.2187761217       -8.3690412488
 C         6.7506252355       -4.7586459671       -6.9380948520
 O         7.4700697241       -4.7145326001       -5.9074471922
 C         5.2766877382       -4.2405035225       -6.8387685039
 C         4.3040882278       -4.9884109085       -7.9941578701
 O         4.5108717916       -6.0998163719       -8.3685739726
 C         3.2181330422       -4.0619022619       -8.6299138598
 C         2.0916873978       -4.9939804195       -9.1215611775
 C         1.0409113397       -4.1127569406       -9.8929569443
 O         1.3548841353       -3.3604487698      -10.8021545653
 C        -0.4587453101       -4.1964975883       -9.2361617906
 C        -1.1402108570       -5.3357140803      -10.1010105202
 O        -0.4466945601       -5.9589892703      -10.9140051440
 C        -2.7127442561       -5.6031353225      -10.3649901627
 C        -3.0536618992       -5.9284835932      -11.7938858769
 C        -3.5792598256       -4.7913658196      -12.7247553233
 O        -3.7891141733       -3.6390890842      -12.4422884047
 C        -4.0059753258       -5.2192793170      -14.1286825352
 C        -5.6957311856       -5.4589089294      -14.2107016892
 O        -6.0476738334       -6.5883954018      -14.1631548847
 C        -6.5513449675       -4.1665800000      -14.2645023152
 C        -8.0290856088       -4.2716034675      -13.8497065577
 C        -9.0013036192       -3.4756312166      -14.7860328957
 O        -8.6165968771       -2.8280888802      -15.6653957341
 C       -10.6785438856       -3.7088522193      -14.5124758573
 C       -11.0676056285       -3.5323124707      -13.0776131431
 O       -10.8043395007       -4.5140160776      -12.3773666144
 C       -11.5222860450       -2.2290011598      -12.5244360413
 C       -11.4114449568       -2.1991870639      -10.9756456297
 C       -11.4548883902       -0.7120120534      -10.4953935334
 O       -12.0836617305        0.0551222840      -11.1848120826
 C       -10.8092754437       -0.2500085478       -9.1696933268
 C        -9.6016697385        0.7620171290       -9.5450878896
 O        -9.7355668998        1.9756292943       -9.6620714653
 C        -8.2992054814        0.0560502092       -9.7054196096
 C        -7.3138894134        0.5352124346      -10.7495732695
 C        -7.7246167553        0.0157007448      -12.2489494934
 O        -8.2438090255       -1.0151353483      -12.5547272840
 C        -7.4076386641        1.0054263377      -13.4427850545
 C        -8.5694697063        2.0883276961      -13.4112311629
 O        -9.5687536570        1.8646996685      -12.7430134383
 C        -8.2241584031        3.4393482385      -14.1003785183
 C        -9.4824295781        4.1224788192      -14.5390501141
 C       -10.0029554270        5.0483178515      -13.4175616180
 O        -9.3915465129        5.3585682073      -12.4118588458
 C       -11.5132543768        5.5603963176      -13.6121886701
 C       -12.3036458770        4.7419504921      -12.5115438900
 O       -12.5177953491        3.5275791205      -12.7215989465
 C       -13.0892588984        5.5409812604      -11.4156998758
 C       -13.6139913655        4.7529638187      -10.1942069946
 C       -14.2396534317        3.3817388124      -10.3160654943
 O       -13.5995247755        2.3345131707      -10.3893725348
 C       -15.8455343315        3.3192834932      -10.5101329489
 C       -16.4064023007        4.0154865273       -9.2579158597
 O       -15.6568261200        4.6145481772       -8.5162022888
 C       -17.8724048874        3.7001234778       -8.8519193224
 C       -18.6605956880        5.0750572361       -8.8289346664
 C       -19.3025955969        5.4572539896      -10.1587831585
 O       -19.3447641221        4.6804447996      -11.1123204997
 C       -20.0506282209        6.7389003633      -10.5550305198
 C       -19.0573075323        7.8099129339      -11.1131989275
 O       -17.9162177346        7.8979066102      -10.6710333000
 C       -19.4686426331        8.6837833421      -12.4276026009
 C       -21.1914573943        6.2969477238      -11.5412639465
 C       -20.7992604229        7.5067026715       -9.3925854837
 C       -16.1463700519        4.1452729039      -11.7875600523
 C       -16.4817907665        1.9838690270      -10.6376534744
 C       -11.6813621335        7.0384102599      -13.4208915073
 C       -12.1001589658        5.1633944092      -14.9763876740
 C        -6.0346746530        1.7179909253      -13.2570908923
 C        -7.4977611549        0.1425448172      -14.7281863642
 C       -11.7467825220        0.5716994092       -8.3632493124
 C       -10.3010351231       -1.3716501977       -8.3212432548
 C       -11.4270891413       -2.7348972875      -15.4564802169
 C       -10.9429191683       -5.2018170392      -14.8766106616
 C        -3.5777607057       -4.0326737851      -15.1234583589
 C        -3.2405066633       -6.4567365198      -14.7685506506
 C        -0.6908908705       -4.4826345810       -7.7339412455
 C        -1.2047263314       -2.8240558623       -9.5977725388
 C         4.7435351647       -4.7762723586       -5.5372115798
 C         5.3864144760       -2.7311278806       -7.1399741799
 C        10.5230893438       -2.8728160356      -10.4996970127
 C        10.6895646217       -4.9497407777      -12.0312742097
 C        15.5839578018       -4.7906963702       -6.1408119812
 C        15.2876060433       -7.4023925685       -6.2132343316
 C        11.9464602395       -3.9453251716       -1.3881500637
 C         9.6161229408       -4.7077652262       -2.1166220097
 H        12.5874138788       -2.1811710142       -3.7645206999
 H        11.2797831290       -1.7390665856       -2.6778077875
 H        11.0118517224       -1.6169736477       -4.3614094471
 H        12.3690666124       -7.6643865701       -2.0969529039
 H        13.2266319453       -6.1064746611       -1.6972048898
 H        13.1210194047       -7.7638462533       -4.3061516811
 H        14.6447757960       -7.5576290052       -3.2438642874
 H        13.9367337538       -4.0489473491       -7.7052252340
 H        12.2071217545       -3.8478317884       -7.1792943685
 H        12.8667481526       -6.0370812627       -9.3401840830
 H        12.9472139796       -4.4951610445       -9.8742315685
 H         7.5947353723       -3.2584725854       -9.5301822170
 H         9.0468849540       -3.7483863740       -8.4555864379
 H         8.1133519634       -5.9237982116       -8.0262278893
 H         6.6437020794       -5.7670455971       -9.0983227755
 H         3.6473355644       -3.5322378726       -9.4649125310
 H         2.8025539763       -3.2807057571       -7.9836428097
 H         1.6181863482       -5.4629316494       -8.2655550692
 H         2.4968222951       -5.7747940336       -9.8118682837
 H        -3.1699964296       -4.8083161154       -9.8689663256
 H        -2.8261517536       -6.4871210785       -9.7431942674
 H        -3.8052440896       -6.8100143052      -11.8495598830
 H        -2.1871411155       -6.4410886859      -12.2500452249
 H        -6.4291804583       -3.6958908769      -15.1881340612
 H        -6.0333592360       -3.5484387358      -13.6454376390
 H        -8.2240433063       -3.8568049162      -12.8436065123
 H        -8.3903443945       -5.3185974797      -13.8060879269
 H       -12.5518081694       -2.2019012222      -12.8720347812
 H       -11.0033366791       -1.4170470562      -13.0242944051
 H       -10.5637691512       -2.7964136201      -10.6825626429
 H       -12.2237298434       -2.7439982313      -10.4378136602
 H        -8.4350654356       -1.0606964091       -9.8397576959
 H        -7.8886210526        0.1867922484       -8.6853636802
 H        -6.2428602663        0.2447287732      -10.6065436086
 H        -7.1152656233        1.5952542404      -10.6412640814
 H        -7.4934887137        3.2522894050      -14.8931294218
 H        -7.6951685703        3.8574203150      -13.3230382025
 H       -10.2422369398        3.3375072112      -14.8929803973
 H        -9.3171142545        4.7166243058      -15.4674966327
 H       -13.9709232050        5.9174522355      -11.9015058454
 H       -12.6289282578        6.4121668379      -10.8991714225
 H       -14.3688470852        5.3678882317       -9.6288357852
 H       -12.8053161736        4.4214179499       -9.4280051039
 H       -17.8854560656        3.1851635256       -7.8525700042
 H       -18.3902289168        3.1353214483       -9.6437507977
 H       -18.0288820372        5.9175208775       -8.5560616455
 H       -19.4267637106        4.9680763181       -8.1074458986
 H       -20.4314736351        9.1237710225      -12.3894177539
 H       -19.3455027948        7.8694259826      -13.1764970178
 H       -18.6393673206        9.3304198267      -12.5929336852
 H       -20.8827849420        6.0310732695      -12.5381282076
 H       -21.7651217917        7.1865888853      -11.6613437585
 H       -21.7598783890        5.3839133566      -11.1484287368
 H       -20.3043913012        7.5139307367       -8.3538125139
 H       -21.8667541895        7.1549615349       -9.3906512107
 H       -20.9721606880        8.5501118418       -9.5795162612
 H       -17.1079873395        4.6261334845      -11.7936280657
 H       -16.0414888164        3.5628253356      -12.6750081717
 H       -15.4650695374        4.9505986789      -11.7718767191
 H       -16.9472504862        1.8697580127      -11.6226084906
 H       -17.2151340954        1.7417138304       -9.9078525480
 H       -15.6335212858        1.2601769276      -10.6054697334
 H       -11.1336836146        7.6617760986      -14.1243548164
 H       -11.6369475889        7.3371961258      -12.3788322173
 H       -12.6655664653        7.2499930361      -13.7617609223
 H       -12.4169993135        4.0889078679      -14.9484758063
 H       -11.4114770543        5.4267503716      -15.7881055845
 H       -12.9722036553        5.7779818666      -15.2680786930
 H        -5.4361798514        0.9952912055      -12.8609543263
 H        -6.0813071215        2.6219964955      -12.5375012344
 H        -5.7272403992        2.2330141243      -14.1811935988
 H        -6.7607343169       -0.6719523297      -14.5734210769
 H        -7.3216254985        0.6905291022      -15.6318954629
 H        -8.5613551335       -0.2393856652      -14.9796716628
 H       -12.1630905361        1.4703619248       -8.8487773021
 H       -11.2800482615        0.9297248207       -7.4483057439
 H       -12.5970461667        0.0743928355       -8.0318610800
 H       -11.2511089897       -1.9139165949       -7.9642331571
 H        -9.7413609810       -0.9092549049       -7.5610189455
 H        -9.6562572534       -2.1898961471       -8.7475312674
 H       -12.5208785382       -2.6418583117      -15.1421142802
 H       -11.4111127241       -3.1322547485      -16.4650260267
 H       -10.9365933113       -1.7837651931      -15.4648969875
 H       -11.9876889011       -5.4799066894      -14.7435266417
 H       -10.3491217199       -5.8928806734      -14.2461733872
 H       -10.7250471559       -5.4134798140      -15.9481095220
 H        -3.4314195987       -4.1365789546      -16.1441834135
 H        -2.5793716194       -3.7208364512      -14.7638692019
 H        -4.3368885337       -3.3070680523      -14.9993211752
 H        -2.1305751269       -6.5221734738      -14.5462009479
 H        -3.5287558442       -6.3662445836      -15.8175791684
 H        -3.5798995964       -7.4111009654      -14.3526829736
 H        -0.1192238749       -5.3472182616       -7.3920722365
 H        -1.7503450508       -4.7131677237       -7.6494203605
 H        -0.5085273990       -3.7507914942       -7.0311130096
 H        -1.3165920478       -2.7354741549      -10.6905217453
 H        -0.4837498311       -2.0365557840       -9.2299353282
 H        -2.2461283228       -2.7859124038       -9.2879076994
 H         4.8599997498       -5.8555380439       -5.4915092805
 H         3.6565887874       -4.5690703070       -5.4654970236
 H         5.0687634617       -4.2398643597       -4.5989249038
 H         6.4319535686       -2.5183521371       -7.5601126613
 H         5.2720381396       -2.0731523414       -6.3537598770
 H         4.7710625958       -2.6428824730       -8.0312108223
 H         9.6602350497       -2.2595834688      -10.8820236370
 H        11.4366398911       -2.6410513208      -11.0378044297
 H        10.7450761413       -2.5271930137       -9.4211366331
 H        10.4715232053       -6.0184120779      -12.1000200508
 H        11.7927633628       -4.8191863373      -12.1661380476
 H        10.1334301447       -4.3025761720      -12.7739249943
 H        16.2225910659       -4.8981826990       -7.0576201506
 H        16.1452719213       -4.7810020637       -5.2134672461
 H        15.0520110403       -3.8282975952       -6.1291876847
 H        15.7026713553       -7.9160597568       -5.3157614786
 H        16.1951001495       -7.2845835168       -6.8007045967
 H        14.5548134346       -8.0779956377       -6.6836567466
 H        11.5077076156       -2.9768079890       -1.1984572316
 H        12.9594638603       -3.9085005685       -1.6809118838
 H        11.8817887483       -4.5937481642       -0.4689306867
 H         9.6724300097       -5.0474851889       -1.0447856578
 H         9.0595676485       -5.4244209263       -2.7423259323
 H         9.1115992260       -3.7543713939       -2.2066349500
 Na        9.7538676549       -6.0616411568       -6.0928226532
 Na      -11.3682834904        2.1324566004      -11.1471959641
