232

 C        11.0880806202       -2.1450148644       -3.6172018365
 C        10.9507050813       -3.6523930129       -3.8821007971
 O        10.6452975947       -3.9199790504       -5.0123015454
 C        10.9803085393       -4.6800846873       -2.5966297403
 C        11.4390961863       -6.0489485957       -3.0322558365
 O        10.8153380941       -6.8458064120       -3.7483508974
 C        12.8597041361       -6.5992539158       -2.4813833433
 C        13.7299655392       -7.0525564550       -3.7482033735
 C        13.9930716583       -5.7586687048       -4.5073645281
 O        13.7393124355       -4.6748936457       -4.0092762582
 C        14.5538449175       -5.8653526123       -6.0255345807
 C        13.1614184234       -5.7462576519       -6.8331559833
 O        12.4511607378       -6.6984934959       -6.5966313154
 C        12.6911899511       -4.4640648016       -7.6974288132
 C        12.4190303328       -5.0534594376       -9.0751364119
 C        10.8635922533       -5.2194404647       -9.3747319420
 O        10.1882022097       -5.9975030424       -8.7411863663
 C        10.3435903339       -4.3037666544      -10.5160022965
 C         8.8153895871       -4.4891233905      -10.3188390664
 O         8.1634823877       -5.2096008011      -11.0297559971
 C         8.0419488917       -3.9163382774       -9.1368046096
 C         7.1641529887       -5.0857550862       -8.5619361391
 C         6.7630033524       -4.7476538723       -7.1077074918
 O         7.5978504364       -4.8986551678       -6.2819916066
 C         5.3236167699       -4.1728344670       -6.9261256886
 C         4.3658680962       -4.9669517001       -7.9829100188
 O         4.6480373007       -6.1625825882       -8.2329547254
 C         3.0250302308       -4.2172967885       -8.4762414102
 C         1.9965418096       -5.1429378552       -9.0927120167
 C         0.9035525324       -4.2739225125       -9.8031020863
 O         1.1953298962       -3.5521731427      -10.7509517295
 C        -0.6059075564       -4.1691440390       -9.3673559326
 C        -1.1346757419       -5.3333261002      -10.3028844350
 O        -0.4222045717       -6.2088351473      -10.6640830449
 C        -2.6603323218       -5.3937114373      -10.5936087792
 C        -3.0814283359       -5.8678261057      -12.0140297618
 C        -3.5371379050       -4.6923715543      -12.8688619984
 O        -3.6177800493       -3.5652847253      -12.3764459249
 C        -4.0023750421       -4.9983768474      -14.2765680465
 C        -5.5650434053       -5.2412867157      -14.0225430022
 O        -6.0730269421       -6.3474976354      -13.7391727772
 C        -6.6186943068       -4.0317942955      -13.9451118996
 C        -8.0496594120       -4.5676872066      -13.8879536663
 C        -8.9551120030       -3.7587549833      -14.7336772495
 O        -8.4767414087       -2.8921329277      -15.5122225337
 C       -10.5265788258       -3.8499135761      -14.4821857536
 C       -10.8315771362       -3.6477175577      -13.0467393990
 O       -10.5134615444       -4.4736379276      -12.2580395933
 C       -11.4736292588       -2.2599137765      -12.5311712262
 C       -11.3526592299       -2.0982824210      -11.0432036146
 C       -11.4720421762       -0.7066199474      -10.5103840910
 O       -11.9784705488        0.2114545043      -11.1460437971
 C       -10.6836461648       -0.2906542393       -9.0952206335
 C        -9.3910113418        0.6581677303       -9.5047045924
 O        -9.4093127183        1.8588119044       -9.7208685813
 C        -7.8994449172        0.0747507508       -9.6719296222
 C        -7.1963142175        0.5168014698      -10.9659691602
 C        -7.8252402552       -0.0538278148      -12.2999337907
 O        -8.6366247405       -1.0040369333      -12.3568069672
 C        -7.4611427843        0.9275797923      -13.5371310013
 C        -8.5661962576        2.0822664946      -13.4962351103
 O        -9.6386775826        1.9994010281      -12.9355359427
 C        -8.2195826444        3.3739268468      -14.2987533217
 C        -9.4962578938        4.1394772110      -14.6624151871
 C       -10.0614962855        4.9531459034      -13.5210913902
 O        -9.4728870560        5.3825853261      -12.5645917040
 C       -11.5284483784        5.4774905283      -13.6747752626
 C       -12.3796956916        4.7500756965      -12.6078695092
 O       -12.3840518381        3.5552980482      -12.7146089983
 C       -13.0713965205        5.5286598840      -11.5132726799
 C       -13.4945529846        4.6936230743      -10.2443249573
 C       -14.3391766182        3.2997850202      -10.4091231418
 O       -13.6103163178        2.3399461318      -10.2163260568
 C       -15.8534126992        3.2168030299      -10.4126666990
 C       -16.5213904259        3.9060527386       -8.9817535863
 O       -15.7531099427        4.4642071857       -8.2172670526
 C       -18.0223214307        3.9432049830       -8.7972427154
 C       -18.5769525202        5.3325206435       -8.8677542109
 C       -19.4679441942        5.4078268043      -10.1400088131
 O       -19.4854358126        4.4901672180      -10.9633078534
 C       -20.1986563461        6.7700351742      -10.4172517175
 C       -19.1586605674        7.8230326030      -10.9773938623
 O       -18.0778793223        7.8616308697      -10.4522983271
 C       -19.4233521952        8.6897007391      -12.2516592942
 C       -21.3108451972        6.4873349451      -11.4847135664
 C       -20.6964661645        7.5436145196       -9.2543068029
 C       -16.4949892166        4.0563690278      -11.4810074663
 C       -16.0654686651        1.6635236988      -10.5930292040
 C       -11.3724686980        7.0989927900      -13.5482853089
 C       -12.2102021150        5.1284840643      -15.1224641339
 C        -5.9993509377        1.4257440534      -13.4810850309
 C        -7.6999478219        0.3359882387      -14.9245136500
 C       -11.7792511752        0.4524618586       -8.3605193222
 C       -10.2325044245       -1.4868725365       -8.2344550046
 C       -11.0710569904       -2.8229797302      -15.4632061386
 C       -11.1275957944       -5.1813978833      -15.0971746662
 C        -3.8088451736       -3.9003765264      -15.3187534591
 C        -3.4626241293       -6.3087778856      -14.7746690145
 C        -0.7614958631       -4.7284540221       -7.8561500418
 C        -1.1972897624       -2.7471038137       -9.4785653486
 C         4.6626354874       -4.5714017144       -5.5512448167
 C         5.2701651597       -2.5428968337       -7.0297742898
 C        10.8689284620       -2.8752073917      -10.4111543005
 C        10.8353886245       -4.9527904524      -11.8399470813
 C        15.5916618555       -4.7069060970       -6.1530231193
 C        15.2395712239       -7.2764330432       -6.3398913023
 C        11.8913028082       -4.0778740007       -1.5321552275
 C         9.5567723448       -4.7956496839       -2.1082575591
 H        12.0170576259       -1.7016803380       -3.0860626595
 H        10.2230758365       -1.7991062357       -3.0015320371
 H        10.9333116035       -1.6923689409       -4.6372360377
 H        12.6435934784       -7.5738260826       -1.9505451852
 H        13.4805063725       -5.9450414282       -1.9445006742
 H        13.1454510849       -7.7292789508       -4.3304873457
 H        14.6146556043       -7.4721475432       -3.3921848840
 H        13.4740621941       -3.7758274364       -7.6963598137
 H        11.7822696511       -4.0127450290       -7.2387950577
 H        12.8500413036       -6.0626027792       -9.0914257911
 H        12.7835527632       -4.5254156543      -10.0076351579
 H         7.5571990816       -2.9988400259       -9.4655792467
 H         8.7236335935       -3.7111039534       -8.3909876398
 H         7.9111425449       -5.8984882669       -8.4596154612
 H         6.3569382378       -5.4120830084       -9.1311996350
 H         3.2483532663       -3.5003258761       -9.2945285331
 H         2.6014403874       -3.6396713603       -7.6573154671
 H         1.5357096781       -5.8432230881       -8.3670152135
 H         2.4295962270       -5.7769243715       -9.8595756383
 H        -2.8742041922       -4.3209281687      -10.3498584947
 H        -3.1564484876       -5.9337863627       -9.7441342808
 H        -3.8477623484       -6.5301431367      -11.8957016872
 H        -2.3205589194       -6.4538029633      -12.5156571312
 H        -6.4476204791       -3.2512289992      -14.7512845924
 H        -6.3992430441       -3.3728289900      -13.0087505123
 H        -8.5344382007       -4.4616528191      -12.9423686979
 H        -8.1451989419       -5.5824860167      -14.2029804125
 H       -12.5328728286       -2.1198543854      -12.7937137141
 H       -10.8947278655       -1.4631556634      -13.0343313456
 H       -10.3947661349       -2.5273197200      -10.6063465538
 H       -12.0774091350       -2.7408528790      -10.5736109048
 H        -7.8663420264       -0.9915482547       -9.7587269715
 H        -7.3754852395        0.4061762442       -8.7585175095
 H        -6.1458254241        0.2828759245      -10.9344241514
 H        -7.1248098783        1.5945186943      -11.0606997414
 H        -7.6013861033        3.0157505184      -15.1254116814
 H        -7.4842037849        3.9679306674      -13.5812533568
 H       -10.2547388464        3.4543826791      -14.9907315957
 H        -9.3283517478        4.8011133369      -15.5464903995
 H       -13.9429100460        6.1198117697      -11.9517342866
 H       -12.4465323929        6.2709164961      -11.0429762436
 H       -14.0302948011        5.3029480422       -9.5327862021
 H       -12.6385104342        4.3327382243       -9.7608458487
 H       -18.1918100283        3.5911912367       -7.7984618895
 H       -18.5223543020        3.3046894774       -9.5274607190
 H       -17.7741619231        6.0728917144       -9.0264331645
 H       -19.1282289960        5.6414705552       -7.9321369364
 H       -20.1643948840        9.4591237484      -11.8331651682
 H       -19.8584977420        8.0119789761      -12.9633661233
 H       -18.4371711599        9.1507532653      -12.5290759089
 H       -21.0223266802        6.9178542095      -12.4489157328
 H       -22.3332390414        6.8431396484      -11.2221613506
 H       -21.3224233154        5.4782762421      -11.6634829753
 H       -19.8970086142        7.8630833991       -8.6879185741
 H       -21.4529470667        7.1063826277       -8.5801590467
 H       -21.2092301813        8.4127232576       -9.6325077922
 H       -17.4775100628        3.6014709554      -11.7314488641
 H       -15.9641558717        3.8848903706      -12.4473050008
 H       -16.7333478521        5.1239457585      -11.2475831084
 H       -16.4841701653        1.4071847247      -11.5605918529
 H       -16.7959254064        1.3277294001       -9.8102512673
 H       -15.1212558340        1.1690942886      -10.4841675364
 H       -11.6439580598        7.5779504439      -14.4830743128
 H       -10.3551864790        7.2836461936      -13.2035169585
 H       -12.1044850238        7.6403339953      -12.8702255342
 H       -12.5977731204        4.1320246483      -15.2183586379
 H       -11.5411782097        5.4291316296      -15.9629832180
 H       -13.0674642440        5.7951668609      -15.1997909134
 H        -5.3605051734        0.4803859619      -13.3867483866
 H        -5.8283287627        1.9730570822      -12.5514496533
 H        -5.8426178950        2.1721951037      -14.2680480626
 H        -7.0794270541       -0.5309475580      -15.0289236559
 H        -7.4803729100        1.0949370783      -15.7027791968
 H        -8.6642308080        0.0624430003      -15.1427618737
 H       -12.0881834997        1.4052797968       -8.6687805861
 H       -11.5440020793        0.6852355503       -7.2870615443
 H       -12.7087856383       -0.1462450043       -8.2492193077
 H       -11.0457232255       -2.1104210383       -8.0337636210
 H        -9.5828787856       -1.1295953235       -7.3779693385
 H        -9.5062319704       -2.0456145219       -8.7719563987
 H       -12.1137873013       -2.6837041236      -15.2289554989
 H       -10.8825284591       -3.2253174045      -16.4830068346
 H       -10.5430600617       -1.8277818233      -15.4541070180
 H       -12.1102537720       -5.0048929574      -15.4407711017
 H       -11.1400644491       -6.0312051834      -14.4332176569
 H       -10.6485403894       -5.4263856673      -15.9832947868
 H        -4.5731075428       -4.2149471555      -16.0872806542
 H        -2.9227397609       -3.9465132252      -15.8901351815
 H        -4.1681416579       -2.9125561547      -15.0193645009
 H        -2.4313372120       -6.2574029425      -14.7890323063
 H        -3.9467717641       -6.6783213418      -15.7220662851
 H        -3.5889264279       -7.0338048786      -13.9672654547
 H        -0.7585602621       -5.7627533666       -7.6960558552
 H        -1.5847880376       -4.2849851034       -7.3284122474
 H         0.1691441580       -4.4205679146       -7.2715524396
 H        -0.9464465337       -2.3328795741      -10.4431946836
 H        -0.8935202948       -2.1443711865       -8.6195644403
 H        -2.2933810198       -2.8734356472       -9.6196921087
 H         4.7834645462       -5.6305839713       -5.3021653778
 H         3.5899868964       -4.3631047163       -5.5477966774
 H         5.0183720178       -3.9793200733       -4.7106917569
 H         6.0664192513       -2.0346975436       -6.6324542733
 H         4.4714664088       -2.3653265876       -6.2377606108
 H         4.9842367038       -2.1679767229       -7.9698172688
 H        10.6451264800       -2.3860641852      -11.3705852671
 H        11.9761397854       -2.9342231882      -10.4437418823
 H        10.5685044345       -2.2753892482       -9.6114204406
 H         9.9886966414       -5.4117110472      -12.4122999986
 H        11.5199629679       -5.7634579071      -11.5788822382
 H        11.3622489519       -4.1742833959      -12.3857265915
 H        16.0501654326       -4.6559624473       -7.1055767037
 H        16.3659739799       -4.8382898397       -5.3828344637
 H        15.0466991651       -3.7879735739       -5.9230960816
 H        16.1249588412       -7.3559013404       -5.7139837218
 H        15.5950762052       -7.2848985359       -7.3997210702
 H        14.5878119999       -8.1569833228       -6.2079900878
 H        11.3132971057       -3.3003426786       -0.9836491384
 H        12.8366406831       -3.6981994747       -2.0467943718
 H        12.1039342842       -4.8739468345       -0.8352309139
 H         9.4108463947       -5.5703386191       -1.3744657509
 H         8.9236324939       -4.9738822420       -2.9806668995
 H         9.2956105657       -3.8132733110       -1.6675679482
 Na       10.0666279171       -5.9543690494       -6.0914253676
 Na      -11.3118582244        2.3542550609      -11.1553679511
