232

 C        10.9145459648       -2.1618737690       -3.5580908233
 C        10.7920440627       -3.7052496032       -3.8840953624
 O        10.6736475669       -4.0794367085       -5.0931425219
 C        10.9615814603       -4.6593018489       -2.6869425100
 C        11.4625417093       -6.1406854073       -3.0705994446
 O        10.7756901775       -6.8152406738       -3.8404753525
 C        12.7776991620       -6.7133098466       -2.4769961143
 C        13.6773424960       -6.9829221408       -3.7357266367
 C        14.0388706689       -5.7166246261       -4.5211848923
 O        13.8698090269       -4.5817162292       -4.0273853256
 C        14.5315697403       -5.8104204977       -6.0370569179
 C        13.2041782265       -5.7306179302       -6.7399639729
 O        12.3543853600       -6.6324256728       -6.7099508352
 C        12.7950700509       -4.6136082115       -7.6471901080
 C        12.4916481159       -5.1754401338       -9.0401357294
 C        10.9585171506       -5.2012819150       -9.3063339499
 O        10.2845353131       -6.0161787693       -8.6509842109
 C        10.3889865405       -4.3212950856      -10.4284169608
 C         8.7754976091       -4.4252275534      -10.4046243529
 O         8.1693975341       -5.1501973367      -11.1802946925
 C         8.0380097463       -3.7704411280       -9.1626603723
 C         7.1455640592       -4.9304358808       -8.7016366516
 C         6.7197167701       -4.7075324798       -7.1577955059
 O         7.5333727316       -4.9924402237       -6.2583880856
 C         5.2112421484       -4.1719021503       -6.8617724739
 C         4.2693198104       -4.9411654452       -7.8125161287
 O         4.5592894084       -6.0449584383       -8.1772014179
 C         3.0404756371       -4.2402954859       -8.3658717696
 C         2.0365507733       -5.1132198098       -9.1126733602
 C         0.9888377101       -4.1882964835       -9.7838978036
 O         1.3225834980       -3.5232524065      -10.7663942259
 C        -0.5428660751       -4.3074488005       -9.3063893954
 C        -1.2300298297       -5.3745535086      -10.2168863479
 O        -0.5890831854       -6.3244529169      -10.6477863989
 C        -2.7509133403       -5.2243502358      -10.5893976776
 C        -3.0062541866       -5.7701157476      -12.0267148144
 C        -3.4145616814       -4.5821087979      -12.8676551751
 O        -3.5658296856       -3.4717743133      -12.4197550714
 C        -4.1624043197       -4.9778271840      -14.2792690273
 C        -5.5930729475       -5.2293178398      -13.8274429467
 O        -5.8758368028       -6.3630039538      -13.5851914053
 C        -6.6622444634       -4.0727276350      -13.8294168820
 C        -7.9953630966       -4.6851969684      -13.8554839573
 C        -8.9505742451       -3.7564808245      -14.6816364678
 O        -8.5083343596       -2.9658540430      -15.4645920276
 C       -10.5005408723       -3.8095906362      -14.5940253742
 C       -10.8095872940       -3.6219600984      -12.9924615838
 O       -10.4262393806       -4.4089041840      -12.1488991047
 C       -11.3504121299       -2.3176999924      -12.5923976711
 C       -11.2331593343       -2.1801138394      -11.0431319033
 C       -11.2049678534       -0.7212915900      -10.5650392986
 O       -11.8071515089        0.0875452266      -11.1915185578
 C       -10.5360075916       -0.3617871385       -9.2019137958
 C        -9.3674020496        0.4878528210       -9.5725617138
 O        -9.5535671051        1.7078511153       -9.7753073122
 C        -7.9143148070       -0.1061632308       -9.6978861382
 C        -7.2835323452        0.4972350287      -10.9119538040
 C        -7.8783876488        0.0973419684      -12.2803054891
 O        -8.6515367732       -0.8286896510      -12.3031280457
 C        -7.5633011521        0.9071520276      -13.5949097331
 C        -8.5544229842        2.1407830962      -13.4995439129
 O        -9.6345702252        2.0440382048      -12.9449736090
 C        -8.1998987850        3.3750533450      -14.3193272166
 C        -9.4638753168        4.0904712511      -14.7766877402
 C       -10.0817261652        4.9854719134      -13.6913846853
 O        -9.4624819765        5.2122586675      -12.6702819519
 C       -11.5180485099        5.5950622896      -13.8196238533
 C       -12.3237093378        4.8529389880      -12.6349153262
 O       -12.4207042713        3.6412584672      -12.7262184868
 C       -13.1495533286        5.6058178693      -11.6079464761
 C       -13.4351803874        4.7546448640      -10.2519209437
 C       -14.2619087398        3.3674313597      -10.2169312131
 O       -13.5516928573        2.3828186037      -10.2550517193
 C       -15.8734704596        3.2275599264      -10.2559792601
 C       -16.4482913537        3.7708603615       -8.8830848234
 O       -15.6697483361        4.3280847970       -8.1378590401
 C       -17.9623370664        3.9068667249       -8.5444274732
 C       -18.6047667951        5.3198683312       -9.0093098395
 C       -19.4961037186        5.4689426310      -10.1950366735
 O       -19.7732075921        4.5300159626      -10.9935876366
 C       -20.2219130599        6.8560829671      -10.4819635274
 C       -19.1031296708        7.7930748786      -11.0417144533
 O       -18.0867714974        7.8264443488      -10.3816082482
 C       -19.3194757879        8.7939790761      -12.1687521187
 C       -21.5499651994        6.5471916927      -11.4263290185
 C       -20.7377810847        7.4508390520       -9.0685626056
 C       -16.4737042509        3.9655749900      -11.4219645564
 C       -16.1481076171        1.6803819584      -10.4789508236
 C       -11.4883208980        7.1048591978      -13.5803216618
 C       -12.2489116864        5.2291783246      -15.1151835788
 C        -6.0342660164        1.1990042624      -13.5906713750
 C        -7.8215622016        0.1839717588      -14.9434368249
 C       -11.5075703878        0.5063110968       -8.3481276935
 C       -10.2226861254       -1.5533077705       -8.3060589252
 C       -11.0283050651       -2.5907619622      -15.5000653597
 C       -11.0100980580       -5.2369984661      -15.0318099483
 C        -3.9334367425       -3.8405412309      -15.3376153439
 C        -3.6912742811       -6.3168780332      -14.9722725161
 C        -0.8878935723       -4.8458556915       -7.8501135975
 C        -1.1233008316       -2.9476488990       -9.4893023769
 C         4.8185654854       -4.6196622998       -5.5085820968
 C         5.2789226556       -2.6929701845       -7.1807703007
 C        10.8578253982       -2.8674150414      -10.3600398068
 C        10.9283416435       -5.0093881048      -11.7872674058
 C        15.5074195483       -4.6246102161       -6.3346862788
 C        15.1705440338       -7.1157253189       -6.4323627643
 C        11.8254494674       -4.0705265953       -1.5145100265
 C         9.4564934168       -4.7894095862       -2.1457924024
 H        11.6495180352       -1.8727919333       -2.7452936945
 H        10.0135482084       -1.8567217422       -3.1419332487
 H        11.0917424794       -1.5566653384       -4.4139853956
 H        12.6589934645       -7.6947871048       -1.9823996086
 H        13.2993790783       -5.9405515733       -1.8889667845
 H        13.1131823870       -7.6314944813       -4.3354448823
 H        14.6274103674       -7.4118088415       -3.3120038400
 H        13.6108710770       -3.9129770011       -7.7831585361
 H        11.9565113571       -4.1595770878       -7.1792930220
 H        12.9626975330       -6.1933849766       -9.1267672756
 H        12.8469386470       -4.5196360053       -9.8810367777
 H         7.4044452912       -2.9383921743       -9.4364131980
 H         8.7236115349       -3.4249109407       -8.4274807189
 H         7.6382011583       -5.8548792494       -8.8527377919
 H         6.2061358688       -4.9490954630       -9.3230077773
 H         3.3670399430       -3.4493039149       -9.0814956587
 H         2.5208506896       -3.7228664652       -7.5348757309
 H         1.5298632432       -5.7601844433       -8.4141970133
 H         2.4388363916       -5.8439578327       -9.8556223275
 H        -2.9889196455       -4.2411051546      -10.4412233296
 H        -3.3126792221       -5.7652034780       -9.7573168243
 H        -3.8245476636       -6.5239353302      -11.9983614151
 H        -2.1444825831       -6.3174170338      -12.5569629030
 H        -6.4246187114       -3.3229770942      -14.6718802468
 H        -6.5257088624       -3.3978625603      -12.9398686350
 H        -8.4167531503       -5.0209645408      -12.9261337571
 H        -7.9471565013       -5.5391148017      -14.5851988220
 H       -12.3973510303       -2.2903741105      -12.9022310143
 H       -10.7987443691       -1.5017569952      -13.1372307561
 H       -10.2543341869       -2.6082486903      -10.6558097964
 H       -11.9433660222       -2.8356383566      -10.5895144815
 H        -7.7956741994       -1.2055690934       -9.6899293045
 H        -7.3749126025        0.3723678334       -8.8820721670
 H        -6.1305557111        0.3477547136      -10.8366728765
 H        -7.3276844360        1.5606891782      -10.8000060246
 H        -7.5335129016        3.0267328748      -15.0511897682
 H        -7.6657992684        4.1335487804      -13.6780469104
 H       -10.2413250319        3.3785935300      -15.0512577666
 H        -9.2050449906        4.6513057869      -15.6232678605
 H       -14.0339539062        5.9160328219      -12.1197756140
 H       -12.7523148033        6.4994544721      -11.1577325094
 H       -14.0906089008        5.3472500698       -9.6768643251
 H       -12.5848723399        4.5525772704       -9.6666985658
 H       -18.0036465651        3.9337465913       -7.4594422765
 H       -18.5183618172        3.0647555013       -8.9122250416
 H       -17.7741645803        6.0712440793       -9.1563189140
 H       -19.2384774162        5.7715390024       -8.2150656999
 H       -20.1514063729        9.4096586656      -11.8048882653
 H       -19.5516510212        8.2077442066      -13.0416201784
 H       -18.4198935020        9.3806176041      -12.1613554556
 H       -21.5109256741        7.0725483795      -12.3881278557
 H       -22.4242009109        6.8851140632      -10.8708154586
 H       -21.7148155090        5.4729481963      -11.6375006193
 H       -19.8897738852        7.8363844599       -8.4695116853
 H       -21.1574198361        6.6141561121       -8.4010440377
 H       -21.5133275088        8.1066609251       -9.1180994621
 H       -17.2939720484        3.3711334496      -11.8941159877
 H       -15.7484844379        3.9824159771      -12.2684364484
 H       -16.9285845555        4.9612188443      -11.1863208665
 H       -16.4285369848        1.4900079687      -11.5027950959
 H       -16.9980739265        1.3983627472       -9.8256117182
 H       -15.2540647468        1.1194922668      -10.2379504254
 H       -11.8199581566        7.6713343126      -14.4691721686
 H       -10.4319502330        7.2785504127      -13.3502557782
 H       -12.1526888860        7.5032675044      -12.8138348426
 H       -12.1615069335        4.1675894132      -15.2464041910
 H       -11.9392375052        5.7675320565      -16.0405983224
 H       -13.2726841560        5.3750315355      -14.9113523484
 H        -5.5079258632        0.3646468059      -13.6276449417
 H        -5.8364169376        1.6914771183      -12.6116432684
 H        -5.8256427974        1.9134846967      -14.3232170809
 H        -7.1810269104       -0.6558289729      -15.0567104182
 H        -7.6517775023        0.9181870648      -15.6977576172
 H        -8.8307881624       -0.2279061417      -15.1335493231
 H       -11.6021501097        1.5478192178       -8.7019689506
 H       -11.1098436347        0.7686912282       -7.3072577828
 H       -12.4829553110        0.1489611756       -8.1425816097
 H       -11.1433985009       -2.0913965902       -8.1290253466
 H        -9.7100802435       -1.2221950547       -7.4652648539
 H        -9.5139685401       -2.1831988282       -8.7671633763
 H       -12.1548466536       -2.6242268960      -15.4316272878
 H       -10.5759826706       -2.5723541613      -16.4448866835
 H       -10.7505485311       -1.6503825253      -15.0859166923
 H       -12.0434242880       -5.2731000150      -15.2287939515
 H       -10.7594631526       -5.9468937368      -14.2012229791
 H       -10.6101397729       -5.6005884984      -15.9777347974
 H        -4.7566275447       -3.7554229325      -16.0597788497
 H        -3.0897169972       -4.1182545940      -16.0353658699
 H        -3.8219317643       -2.8374273362      -14.8947228080
 H        -2.6489628374       -6.2429516323      -14.9627074666
 H        -4.1432282000       -6.3502223929      -15.9868189551
 H        -3.8823773370       -7.2041219550      -14.4915444881
 H        -1.1710988659       -5.8909727813       -7.7204339930
 H        -1.7667859877       -4.2132946105       -7.5415660035
 H        -0.1362613545       -4.6936437976       -7.0319123897
 H        -0.7310985887       -2.5716728989      -10.3721783593
 H        -0.8687463475       -2.3968808097       -8.5951283758
 H        -2.1774237645       -2.9058142131       -9.6731969491
 H         4.7479615526       -5.6593748558       -5.5313652587
 H         3.8694822042       -4.2640999398       -5.1569697163
 H         5.5578982746       -4.4007629377       -4.6838478952
 H         5.8785476752       -2.2214231177       -6.3413706527
 H         4.3173360082       -2.2242460050       -7.0208890349
 H         5.6828480483       -2.4637280378       -8.1729564823
 H        10.7344497707       -2.4200040715      -11.3524287328
 H        11.8847328559       -2.7651683337      -10.2025777526
 H        10.3355569645       -2.2770923622       -9.6226384303
 H        10.0809436464       -4.9969613209      -12.4453435256
 H        11.2561386926       -6.0085002676      -11.6672170612
 H        11.6921018671       -4.2962319047      -12.1616016747
 H        15.5384048834       -4.5459120251       -7.3981356650
 H        16.5294994825       -4.8345125067       -6.0432637965
 H        15.1338362476       -3.6798865733       -5.8984699912
 H        16.2033190282       -7.0946112324       -6.0646276211
 H        15.0597368798       -7.4346386203       -7.4486831528
 H        14.6349332794       -7.9059131601       -5.8725559526
 H        11.3746361841       -3.1462008247       -1.1287322988
 H        12.8241184578       -3.9312293758       -1.8313988456
 H        11.6680457808       -4.8051256067       -0.7090630468
 H         9.4057262268       -5.6875412084       -1.4825684459
 H         8.7156515176       -4.9109002730       -2.9207932841
 H         9.2742048777       -3.9612803393       -1.5318966419
 Na       10.1842265913       -5.8694047224       -6.1068303600
 Na      -11.2746581702        2.4864401960      -11.1139040615
