232

 C        10.7522718395       -2.2212346755       -3.6131859548
 C        10.8713075037       -3.7179877714       -3.8308772325
 O        10.7181145730       -4.0558219363       -4.9839706860
 C        10.8763769646       -4.6861014293       -2.6229377780
 C        11.4081933557       -6.1163990194       -3.1523152107
 O        10.7541716840       -6.6968349327       -3.9788203141
 C        12.6415567099       -6.7357981560       -2.6648469703
 C        13.7291501941       -6.9326829949       -3.7668484653
 C        14.1569709427       -5.6215281872       -4.4660228892
 O        13.9783868622       -4.5196349626       -4.0147790633
 C        14.4997673641       -5.8056986475       -6.0136511912
 C        13.1168440801       -5.7478254529       -6.6977363216
 O        12.3479753020       -6.6750511779       -6.5809829785
 C        12.8707327913       -4.5260341084       -7.7377610615
 C        12.5842834809       -5.1619136872       -9.1176710242
 C        11.0046582996       -5.2159266028       -9.2540858822
 O        10.2904638542       -5.8636469268       -8.5210971449
 C        10.3960681571       -4.3662351369      -10.4428004016
 C         8.8365874805       -4.4723734755      -10.4591137548
 O         8.2600307654       -4.9651063194      -11.3868200345
 C         8.1674972386       -3.7823880003       -9.2551013852
 C         7.1219906383       -4.7503399260       -8.6972119180
 C         6.6853271796       -4.7307121196       -7.1983163206
 O         7.4781519048       -5.0486657531       -6.3029653974
 C         5.2618000974       -4.2946239939       -6.8248471105
 C         4.2424781400       -4.9700696617       -7.8353162676
 O         4.3889896222       -6.1061267672       -8.1419126634
 C         2.9868102241       -4.1293222259       -8.2396098851
 C         2.1001713694       -5.1124595562       -9.0441179709
 C         0.9552236535       -4.3616825234       -9.7800390846
 O         1.3043225106       -3.5412549825      -10.5582261989
 C        -0.5363331024       -4.3581228192       -9.3122397165
 C        -1.2719599610       -5.4408675494      -10.2668901271
 O        -0.7221408300       -6.4803848642      -10.6415654160
 C        -2.8070032321       -5.2276231420      -10.5659026288
 C        -2.9800437089       -5.6406578040      -12.0046924673
 C        -3.5035784666       -4.5619261674      -12.9606462916
 O        -3.4911800083       -3.3829494273      -12.6932201856
 C        -4.0904058411       -4.9511803424      -14.3610048050
 C        -5.6362931583       -5.2805066952      -13.7592632282
 O        -5.8618675706       -6.3637515759      -13.3143137060
 C        -6.6412464592       -4.2317784417      -13.7037016296
 C        -8.0496352098       -4.7766169637      -13.9248394270
 C        -8.9078037633       -3.7399618253      -14.7638753177
 O        -8.3663448198       -2.9402442527      -15.4560533449
 C       -10.5067515830       -3.7608470859      -14.5371141114
 C       -10.7544680944       -3.5345494602      -13.0183685189
 O       -10.3688549001       -4.4858682023      -12.3010768650
 C       -11.3316412348       -2.2484410985      -12.5323103141
 C       -11.1151902189       -2.2439279151      -10.9820727685
 C       -11.1372050605       -0.7293119915      -10.5539315762
 O       -11.6029988908        0.0963891042      -11.3179558686
 C       -10.4953918891       -0.4468525451       -9.1886310476
 C        -9.3061625116        0.4469773932       -9.5686878075
 O        -9.5048608276        1.5846228504       -9.9282293862
 C        -7.9489607336       -0.1680343580       -9.7688856840
 C        -7.2456396003        0.5706830776      -10.9563737935
 C        -7.9755869611        0.1072415963      -12.2595835164
 O        -8.7533041653       -0.7989584573      -12.2594804551
 C        -7.6088497535        0.9133301675      -13.5636180746
 C        -8.5212232741        2.1439953397      -13.5809788660
 O        -9.5268863221        2.0476425432      -12.9006194547
 C        -8.1843797108        3.4570861250      -14.4057939499
 C        -9.4660243874        4.1333804755      -14.9053402439
 C       -10.0949764582        4.9908070832      -13.7462003522
 O        -9.3844544536        5.0694671962      -12.7629542098
 C       -11.6352933028        5.6779654444      -13.8234878571
 C       -12.4439411283        4.8688463328      -12.6384942183
 O       -12.3969927077        3.6288969673      -12.7648616619
 C       -13.3387376424        5.5638670823      -11.5841149783
 C       -13.5424559992        4.9142508844      -10.2369810859
 C       -14.2054066752        3.4602345562      -10.2895294187
 O       -13.4701593347        2.4699763328      -10.2664483780
 C       -15.7899767250        3.2084412307      -10.1953441900
 C       -16.3087246701        3.8574823372       -8.8782331058
 O       -15.5541486838        4.1715248684       -7.9943268546
 C       -17.9064067839        3.9239137371       -8.5792615260
 C       -18.5502821253        5.3209467740       -9.0360320880
 C       -19.6447267982        5.3590835270      -10.2714420517
 O       -19.9247874911        4.4685835812      -10.9720755721
 C       -20.2946828640        6.8220479820      -10.4040295091
 C       -19.1250666054        7.8399171867      -10.9235961974
 O       -18.0384343625        7.7832747807      -10.3682474360
 C       -19.3605281508        8.8466552370      -12.1175848660
 C       -21.5483221076        6.7714043648      -11.2723034413
 C       -20.7597757828        7.2917647375       -9.0389860480
 C       -16.4164284316        4.0081037743      -11.4186321233
 C       -16.3073761253        1.6835848183      -10.2161399959
 C       -11.5446966417        7.2488869081      -13.6779884505
 C       -12.3332537797        5.3177153250      -15.1410601658
 C        -6.0606441132        1.2042813598      -13.6524957460
 C        -8.0265357231       -0.0194663598      -14.7705475205
 C       -11.3793331379        0.5574813064       -8.2882163455
 C       -10.1552026130       -1.7782124707       -8.3542645812
 C       -11.1209564158       -2.6918570689      -15.3692736012
 C       -10.8904466509       -5.1675954362      -14.9181630239
 C        -4.0577213975       -3.6740537476      -15.2714398971
 C        -3.6924052835       -6.2450538984      -15.0762354875
 C        -0.8074332916       -4.8852105065       -7.9232495302
 C        -1.0509244798       -2.8884981491       -9.4833269357
 C         5.0285328368       -4.5972786506       -5.3330120607
 C         5.3101911752       -2.7526373523       -7.2015038291
 C        10.7715589569       -2.8880629250      -10.2915532169
 C        10.9377710011       -5.0418910952      -11.7496961369
 C        15.3935946789       -4.5926438864       -6.4639835946
 C        15.2000082242       -7.1068138757       -6.4460062762
 C        11.7143742176       -4.1105807917       -1.4940420586
 C         9.3505350937       -4.8499624202       -2.2082896846
 H        11.3485315397       -1.8882678337       -2.9067184142
 H         9.7800762112       -2.1112838918       -3.1448964729
 H        10.8775124615       -1.5765413479       -4.4439382001
 H        12.4024200973       -7.7262874197       -2.3547821311
 H        13.1312473803       -6.0840427244       -1.8781792419
 H        13.1545896812       -7.5272413181       -4.5249209123
 H        14.6042025200       -7.4631420113       -3.2598699188
 H        13.7760032000       -3.8797338631       -7.9056786883
 H        12.0463643509       -3.9677774136       -7.3448021677
 H        12.9960779877       -6.1971461760       -9.0261641844
 H        12.9429696245       -4.6651038231       -9.9883237059
 H         7.5279836175       -2.9629642086       -9.6046964905
 H         8.8869360204       -3.3469906833       -8.4911918695
 H         7.5153491232       -5.7653721564       -8.8373783257
 H         6.1838959251       -4.7441311176       -9.3228818285
 H         3.2747453152       -3.3542239720       -8.9502589028
 H         2.5863321737       -3.6534043097       -7.3111188226
 H         1.7858651183       -5.9761566635       -8.4513802750
 H         2.7493616595       -5.6191242006       -9.7786803792
 H        -3.1934728874       -4.3183646286      -10.1667314155
 H        -3.1807446140       -5.9567641546       -9.8935071815
 H        -3.5639300798       -6.6842482888      -11.9748805717
 H        -2.0114598959       -5.8852677022      -12.5433309026
 H        -6.2939649640       -3.4211172373      -14.3217152233
 H        -6.5512207659       -3.8011702789      -12.7369487604
 H        -8.6012147966       -4.9612405351      -12.9635646643
 H        -8.0535809600       -5.7219171506      -14.5347157089
 H       -12.4039184145       -2.2026297138      -12.7901253090
 H       -10.8314804535       -1.3816420677      -12.9584088606
 H       -10.1723958755       -2.6846880573      -10.7127775631
 H       -11.8542175899       -2.9452410166      -10.4924723369
 H        -8.1829083780       -1.1738347153      -10.2218019974
 H        -7.3331770518       -0.2768058081       -8.8725449446
 H        -6.1643216247        0.2590915295      -10.9678214372
 H        -7.1474175339        1.6933981281      -10.8780891157
 H        -7.4572355994        3.1311008964      -15.1510695428
 H        -7.7879344397        4.1740507365      -13.8253862226
 H       -10.2271069660        3.3868220823      -15.1841290370
 H        -9.1566498632        4.7342859828      -15.7549422026
 H       -14.2029183402        5.8444140566      -12.0895549940
 H       -12.9055461178        6.5094118254      -11.2598829948
 H       -14.2179706013        5.4852715547       -9.6114812677
 H       -12.5840292038        4.7910684779       -9.6692691778
 H       -18.0227026594        3.7968494718       -7.4827173573
 H       -18.4163240882        3.0989840035       -9.0901741887
 H       -17.7393904823        6.0542842635       -9.1664251981
 H       -19.1333290191        5.7509961788       -8.2464612469
 H       -20.2062197510        9.4139371880      -12.0604445024
 H       -19.2890429545        8.1832059491      -12.9739203839
 H       -18.4957928133        9.4013852255      -11.9699528262
 H       -21.4704499058        7.4106829459      -12.1398513187
 H       -22.3985907524        7.0413740057      -10.6667032172
 H       -21.7862883280        5.6922484081      -11.6394372381
 H       -19.8282754298        7.6189838687       -8.4723688929
 H       -21.0891743523        6.4952754131       -8.4194415580
 H       -21.6302495024        8.0694966900       -8.9785321541
 H       -17.3982481316        3.7317928214      -11.8025641474
 H       -15.7912288509        4.0195269439      -12.3115731955
 H       -16.5198196718        5.0151859980      -11.0058521375
 H       -16.2101193939        1.4155302957      -11.2819109353
 H       -17.3271759163        1.7000569528       -9.9544532528
 H       -15.7237856335        0.9901278322       -9.5756788528
 H       -11.6530416616        7.7041515386      -14.6917862693
 H       -10.5262693548        7.4836301452      -13.3408848746
 H       -12.3577434870        7.6540230722      -13.0985816557
 H       -11.9684580383        4.3096357166      -15.3783165004
 H       -11.9913156916        5.9326244724      -15.9246790474
 H       -13.4384377327        5.2328944993      -15.0817810212
 H        -5.4760907568        0.2691959390      -13.7556175626
 H        -5.6630882514        1.7539654049      -12.8762236410
 H        -5.9506960480        1.7214893041      -14.5873504413
 H        -7.5227835958       -0.9836988712      -14.8662119531
 H        -8.0387031072        0.5242419229      -15.6927059426
 H        -9.1050544677       -0.3508923265      -14.5730646889
 H       -11.5083287116        1.5148321665       -8.8735217659
 H       -10.9493191416        0.9681126872       -7.4288802494
 H       -12.3746612954        0.2703502994       -7.9511960505
 H       -11.0776241639       -2.3398524284       -8.1415847462
 H        -9.6535105773       -1.5162236195       -7.4781735737
 H        -9.4441379315       -2.3997426876       -8.8962949299
 H       -12.1810169362       -2.7642739944      -15.4753685394
 H       -10.5173919066       -2.5881442993      -16.2438236186
 H       -10.9441531715       -1.7581434848      -14.9136690583
 H       -12.0037707945       -5.3690925829      -14.9434986042
 H       -10.4109471063       -5.8594717255      -14.2397018329
 H       -10.6314771920       -5.3994685746      -15.9986843176
 H        -4.8752152442       -3.4412146853      -15.9341744459
 H        -3.1931751613       -3.8030705217      -15.9860890844
 H        -3.8417224921       -2.8067927422      -14.6240321869
 H        -2.5872780705       -6.4633378240      -15.2392661173
 H        -4.2246402749       -6.1569980543      -15.9266977802
 H        -4.0641339947       -7.1319783433      -14.5963818505
 H        -0.8626333540       -6.0398431922       -7.8710732288
 H        -1.8309557047       -4.5242480562       -7.6286779074
 H        -0.1900200803       -4.5902816907       -7.1043448364
 H        -0.8987653487       -2.5555529024      -10.5045732463
 H        -0.5629324307       -2.3416428412       -8.6993850017
 H        -2.0731447435       -2.7603540269       -9.2667253018
 H         4.6444756710       -5.6086462850       -5.0703381185
 H         4.2647280360       -3.9264550153       -4.9613538468
 H         5.9091488447       -4.5085753679       -4.7091661786
 H         5.6025700347       -2.1959259375       -6.2506798927
 H         4.4009426040       -2.3070774451       -7.5293431895
 H         6.1093410885       -2.5353651749       -8.0035307467
 H        10.6175455176       -2.2720568675      -11.1496141398
 H        11.7933128028       -2.6662127794      -10.0703099343
 H        10.1630229548       -2.5484512138       -9.4281831839
 H        10.3316746029       -4.6198981700      -12.5156600818
 H        10.7781632556       -6.1256321405      -11.7019140226
 H        11.9530127714       -4.7029455286      -11.8627356136
 H        15.4068062013       -4.5905831623       -7.5991016485
 H        16.4343976733       -4.8308712067       -6.2940843925
 H        15.1077803831       -3.6374509999       -6.0578041290
 H        16.2817764594       -7.0734224562       -6.2278059991
 H        14.8920652236       -7.3846556523       -7.4479368615
 H        14.7480030337       -7.9467648191       -5.9437066013
 H        11.3778896115       -3.1290770184       -1.3047197595
 H        12.6836982846       -4.0289149353       -1.8898671081
 H        11.5501493508       -4.6137470460       -0.5434244733
 H         9.3565104886       -5.6590282550       -1.4829298385
 H         8.7201690337       -5.1917240904       -3.0173759046
 H         9.0108162656       -3.9848592740       -1.6647042675
 Na       10.1401216572       -5.9150465440       -6.2017405649
 Na      -11.2663170729        2.5054681174      -11.0815894187
