232

 C        10.3638004158       -2.1529590532       -3.3686922478
 C        10.5540103067       -3.5264952266       -3.9023886476
 O        10.6733706621       -3.8109574766       -5.0584830619
 C        10.5127853234       -4.7543199452       -2.8548195496
 C        11.2201884228       -6.0967169795       -3.3721625421
 O        10.7822530211       -6.7612453365       -4.2563653213
 C        12.5622427843       -6.5121116619       -2.7555299544
 C        13.6405974392       -6.9480215060       -3.8168397114
 C        14.2257025756       -5.6316182104       -4.4359393931
 O        14.4448870068       -4.7037791512       -3.7443483374
 C        14.7104140703       -5.6876124366       -5.9232240078
 C        13.3965788037       -5.6521875428       -6.7226101626
 O        12.4174296495       -6.3186620449       -6.5133315673
 C        13.0511969568       -4.5604736047       -7.7358140236
 C        12.5147539561       -5.1779888958       -9.1083194629
 C        10.9332666547       -5.0315221864       -9.3570478445
 O        10.1171169253       -5.6309744739       -8.7215227965
 C        10.4298373262       -4.2301215932      -10.6735277565
 C         8.8058817807       -4.1328629786      -10.7121158354
 O         8.3321860105       -4.3176094402      -11.8086316081
 C         7.9396204225       -3.8380364958       -9.4666368582
 C         7.1144583542       -5.0345633687       -8.8814964385
 C         6.8178842645       -4.8857329452       -7.3297700130
 O         7.6341917603       -5.2648153468       -6.5499422015
 C         5.4584040089       -4.3462269939       -6.8936495688
 C         4.2527681756       -5.2266980994       -7.4261475319
 O         4.4435212025       -6.4286718127       -7.4506005568
 C         2.9032019774       -4.4792475536       -7.8106935391
 C         2.1066162832       -5.1964156252       -8.9501529111
 C         1.0241844438       -4.3907793015       -9.5601066686
 O         1.2650699602       -3.5521840083      -10.3895499241
 C        -0.5684616796       -4.4979631932       -9.1181398402
 C        -1.1852575652       -5.5107173515      -10.1629950972
 O        -0.5920771687       -6.5397843478      -10.3075919091
 C        -2.5728068253       -5.1758655896      -10.8477209125
 C        -2.6845537052       -5.4601929545      -12.3514871335
 C        -3.3060312872       -4.3535072069      -13.2091280764
 O        -2.9866916974       -3.1753765873      -12.9679144555
 C        -4.2423723015       -4.7895285147      -14.3452477081
 C        -5.5831560927       -5.3377097561      -13.4522241268
 O        -5.5430772218       -6.5014228444      -13.0587705534
 C        -6.9401983185       -4.4814641804      -13.3882507862
 C        -7.9638783684       -4.9958448515      -14.4572234559
 C        -9.0119907195       -3.8847474310      -14.8710162748
 O        -8.5399626634       -2.9075760412      -15.4438390884
 C       -10.5886958704       -3.9628669380      -14.6158452535
 C       -10.7564300618       -3.7653702242      -13.0445727578
 O       -10.3641324854       -4.6706776657      -12.3045904858
 C       -11.3687863406       -2.5129886041      -12.5853521846
 C       -11.1841428863       -2.4960731239      -10.9995877188
 C       -10.8901918087       -0.9923795049      -10.4856972334
 O       -11.4365719026       -0.0785734082      -11.1138963409
 C       -10.2321301703       -0.5578461272       -9.2377407677
 C        -8.9977287993        0.4544502202       -9.6290732019
 O        -9.1515099640        1.6470879507       -9.6170637599
 C        -7.4501831024       -0.0220968108       -9.7029814403
 C        -6.9266227149        0.2791951405      -11.2069444475
 C        -8.0105701742        0.1183141955      -12.3198144921
 O        -8.9300271354       -0.6588257810      -12.1281090077
 C        -7.8515069197        0.9471837684      -13.6061514521
 C        -8.7334714896        2.2951229761      -13.5232981685
 O        -9.5849275150        2.5308927636      -12.7039119408
 C        -8.5754792330        3.2862986710      -14.7408689529
 C        -9.8304724447        4.1482930716      -15.0419151059
 C       -10.2071896805        4.9831783095      -13.7995841001
 O        -9.4829210644        5.1873412136      -12.8816125261
 C       -11.7181084174        5.6429022923      -13.8327617251
 C       -12.5486716430        4.9251078585      -12.8015299014
 O       -12.4411493329        3.6930489658      -12.7957545594
 C       -13.6317703269        5.6021869835      -12.0203996158
 C       -13.7246234622        5.3011869993      -10.4160678098
 C       -14.1833606271        3.7379772767      -10.2931307598
 O       -13.3361612709        2.8395465227      -10.2043231196
 C       -15.6441501826        3.2409291948      -10.3170316927
 C       -16.3954401560        3.7603305880       -8.8812381318
 O       -15.7104294531        4.1706373755       -7.9935673061
 C       -17.9647131061        3.8069940803       -8.6151104171
 C       -18.3472646339        5.3164343696       -8.7083005488
 C       -19.5158420860        5.3893955267       -9.7344490161
 O       -19.8629579161        4.4690192105      -10.3334748233
 C       -20.2598390797        6.8949912271      -10.0399998966
 C       -19.1784634220        7.8110044746      -10.7141692125
 O       -18.0148353576        7.8812517755      -10.3250541644
 C       -19.6540080023        9.0031325404      -11.7061445131
 C       -21.4323349976        6.4883536453      -10.9673158007
 C       -20.7653942401        7.7099789327       -8.7773052594
 C       -16.5176478298        3.7593125625      -11.4345695703
 C       -15.7402684693        1.7307282049      -10.3512253796
 C       -11.5257125113        7.1698172323      -13.6742538763
 C       -12.3236928982        5.3832796345      -15.3284683525
 C        -6.4215087814        1.3820739237      -13.8988172298
 C        -8.6377722250        0.1336102947      -14.7036761930
 C       -11.1400259948        0.3459112438       -8.4693317697
 C        -9.6641218471       -1.6884732894       -8.4143657224
 C       -11.2571504737       -2.7984123397      -15.5188374488
 C       -11.0278961220       -5.4281216219      -15.0782088301
 C        -4.6348370009       -3.7352071693      -15.3729483486
 C        -3.6614980996       -6.0273742767      -15.0948946826
 C        -0.9029654782       -5.0427043994       -7.6188448291
 C        -1.1111007178       -3.0356364121       -9.2718406428
 C         5.4597085180       -4.6188285522       -5.3769697680
 C         5.4306576769       -2.7419008801       -7.1818215532
 C        10.9803458797       -2.8048968801      -10.6515625913
 C        10.8721765786       -4.9500529800      -12.0137269018
 C        15.6374318001       -4.5603292563       -6.2152272663
 C        15.3505463648       -7.1046991634       -6.2851150677
 C        11.2009360291       -4.2376230821       -1.5499325043
 C         9.0235502771       -5.0661654205       -2.6556778215
 H        11.3507184617       -1.7849355285       -3.2953730480
 H        10.0325894381       -2.1772149443       -2.3490545477
 H         9.9020222492       -1.4291680661       -3.9554983061
 H        12.2964170461       -7.3558447528       -2.1144255595
 H        13.0608132797       -5.6502863817       -2.2098660119
 H        13.0313467271       -7.5311587618       -4.5904681998
 H        14.4830815178       -7.5001997544       -3.3860005026
 H        13.8296771211       -3.8571318356       -8.0516828255
 H        12.1870002398       -4.0772570682       -7.3644507095
 H        12.5847970001       -6.3226459445       -9.1679396823
 H        13.0061157035       -4.6364857578       -9.9026595120
 H         7.2311558294       -3.0894582164       -9.6200361369
 H         8.5629475276       -3.4483983652       -8.6692201267
 H         7.6953172274       -5.9434081699       -9.0693562754
 H         6.1339856420       -5.1608269003       -9.3050020128
 H         3.2473511432       -3.4881358751       -8.0993323515
 H         2.3437622220       -4.3660253506       -6.8445676777
 H         1.7094344039       -6.1563025520       -8.5468686516
 H         2.8107041579       -5.5099568815       -9.7228482703
 H        -2.9552841767       -4.2091564688      -10.5177140838
 H        -3.2123828035       -5.7886302000      -10.2902286866
 H        -3.3057647301       -6.4592796787      -12.4512494681
 H        -1.6235106129       -5.5725637243      -12.7169270036
 H        -6.5946654673       -3.4421696940      -13.5413843952
 H        -7.3715279831       -4.6268146770      -12.3609351929
 H        -8.6112221727       -5.8093053135      -14.0102669762
 H        -7.4497185229       -5.3133278165      -15.3760849073
 H       -12.4654295860       -2.5046123237      -12.8182382048
 H       -10.9451094924       -1.5891424642      -12.9876740279
 H       -10.3899868145       -3.1464450480      -10.7615147701
 H       -12.1774348198       -2.7916728239      -10.5250703691
 H        -7.3404139816       -1.0980978034       -9.5193436038
 H        -6.8847680607        0.5646398512       -8.9908675440
 H        -5.9942338809       -0.2615380598      -11.4583207948
 H        -6.7430976630        1.4120967989      -11.2232094788
 H        -8.4305487760        2.7053620516      -15.6763346182
 H        -7.7273973182        3.7690479936      -14.4915458179
 H       -10.5488931924        3.3986124323      -15.2970729998
 H        -9.5981449327        4.7633776898      -15.8679028135
 H       -14.5577572947        5.3535333603      -12.4247414433
 H       -13.6438331736        6.6792433850      -12.1724700208
 H       -14.4352056842        5.9040882394       -9.9330589676
 H       -12.8122096548        5.4351015489       -9.8593132064
 H       -18.3321767608        3.4154725404       -7.6772966562
 H       -18.5045279449        3.2732173517       -9.3770319495
 H       -17.5476471126        5.9839920350       -9.1377363300
 H       -18.7237507830        5.8642779678       -7.8496635724
 H       -20.0767817963        9.7126726979      -11.0377571516
 H       -20.4306811120        8.5640802992      -12.3442942826
 H       -18.7645083790        9.4563783437      -12.1123063027
 H       -22.0954922316        7.3313200724      -11.0451408549
 H       -21.9681008086        5.6047092928      -10.6659773907
 H       -21.0990381848        6.2409309989      -11.9949441017
 H       -19.9393792288        7.9976871609       -8.1066698282
 H       -21.3387714709        7.0945033688       -8.1571939655
 H       -21.3290790225        8.6704681862       -9.1492316946
 H       -17.5954455660        3.5006841022      -11.2640119094
 H       -16.2593798583        3.5374188591      -12.5091246590
 H       -16.5127064054        4.8783949124      -11.4743802624
 H       -15.3533471944        1.3342498125       -9.3885752567
 H       -15.1150381706        1.4053620845      -11.1441852316
 H       -16.7739936395        1.4767500528      -10.6047322646
 H       -10.6679373918        7.3950600258      -14.2733415476
 H       -11.2003166132        7.5248495624      -12.6984388291
 H       -12.4856665102        7.5665098155      -13.9131316820
 H       -12.7750641002        4.4160993130      -15.5577231887
 H       -11.6236680533        5.5699289313      -16.0583770846
 H       -13.1290877393        6.1144465957      -15.2803539862
 H        -5.8295999234        0.4719722966      -14.0884694476
 H        -5.9983881701        1.9210206407      -13.1793844655
 H        -6.3321095288        1.8335114612      -14.8206369716
 H        -8.2727473832       -0.8317642089      -14.9563748944
 H        -8.7372689181        0.6665294978      -15.6154234339
 H        -9.5710779998       -0.1333056730      -14.2601005601
 H       -11.4081392011        1.3240585227       -8.9012085959
 H       -10.6897524179        0.6679007026       -7.5708283681
 H       -12.1575089488       -0.0533173801       -8.1412229785
 H       -10.4014826174       -2.2385343493       -7.9282337015
 H        -9.2224713744       -1.1575696882       -7.5907610067
 H        -8.9929004648       -2.3132471416       -8.9423332112
 H       -12.2333270396       -2.5027534812      -15.2340561618
 H       -11.2224576699       -3.1577814286      -16.5842734164
 H       -10.6735843165       -1.8631235698      -15.5037630797
 H       -12.1208880120       -5.4897928926      -15.2281137054
 H       -10.8040571128       -6.1676599072      -14.3852224310
 H       -10.4979447848       -5.6687196443      -16.0015130898
 H        -5.2723454719       -4.1453030143      -16.1666851139
 H        -3.8051337556       -3.1419593644      -15.7615235336
 H        -5.1453610078       -2.9596368944      -14.8007461567
 H        -2.7531925060       -5.8240910234      -15.6692671837
 H        -4.3446943116       -6.3668254142      -15.8104177041
 H        -3.5188268388       -6.8483454610      -14.4280474094
 H        -0.7709874612       -6.1631395284       -7.5727559181
 H        -1.9952739319       -4.9898894248       -7.4461912196
 H        -0.4586021041       -4.4873566053       -6.8215215530
 H        -0.5382266651       -2.5485439256      -10.0851163183
 H        -0.9354176681       -2.4894200774       -8.3540131224
 H        -2.1462980831       -2.9125270006       -9.3312413797
 H         5.7616598391       -5.6106084483       -4.9931376112
 H         4.4689764960       -4.5294910155       -4.9961298506
 H         6.1077420435       -4.0400628291       -4.8359542032
 H         6.4610238069       -2.5348017010       -7.3662657002
 H         5.0870350249       -2.1389800135       -6.3319628666
 H         4.9000540782       -2.3268535733       -8.0362657319
 H        10.4797751831       -2.1733650125      -11.3360423730
 H        12.0428340158       -2.6626759357      -10.8498948057
 H        10.8172147083       -2.3644044713       -9.6609649119
 H        11.8456498844       -4.5664423222      -12.1873988634
 H        10.1174923847       -4.6779313414      -12.7840009400
 H        10.8774298456       -5.9946268954      -11.8315903529
 H        15.9732370455       -4.5828747385       -7.2766336212
 H        16.5584583770       -4.6414715240       -5.6818686968
 H        15.1776448601       -3.6369862257       -6.0058756268
 H        15.6373674935       -7.5031575600       -5.3247547681
 H        16.1744759043       -6.9889823524       -7.0097557618
 H        14.6479284458       -7.8009739981       -6.7286899257
 H        10.6748888402       -3.3920539766       -1.1398412489
 H        12.1580999113       -3.8128179676       -1.9020598885
 H        11.2580254996       -5.0103906442       -0.7631070758
 H         8.9579792959       -5.8671356564       -1.9535764889
 H         8.6730580242       -5.5203183528       -3.5806903682
 H         8.3961314326       -4.2425269457       -2.2848306082
 Na        9.8054971797       -5.9451014205       -6.2783992133
 Na      -11.1067206811        2.2523228328      -11.0124280890
