232

 C        10.3256975913       -2.1256102323       -3.4843604350
 C        10.5038214697       -3.6285356381       -3.9371228204
 O        10.4341762001       -3.8139520272       -5.1418522639
 C        10.5091289802       -4.7814831605       -2.9072584325
 C        11.2971111863       -5.9921810303       -3.3855993179
 O        10.7544763932       -6.7737288571       -4.1905621172
 C        12.5333077289       -6.4961875119       -2.6526107161
 C        13.5443970169       -6.9654684732       -3.7436479072
 C        14.3057186618       -5.7557702720       -4.3737165086
 O        14.5012964389       -4.7501550056       -3.6762679999
 C        14.6448086112       -5.6643372093       -5.9367171312
 C        13.2318641267       -5.5546810928       -6.8062464691
 O        12.4500235746       -6.4475562419       -6.5202097032
 C        13.0550319256       -4.4679677121       -7.9892729736
 C        12.4352466810       -5.0450828328       -9.2733279579
 C        10.9202663427       -5.0350075562       -9.4156394584
 O        10.1214643297       -5.6605927513       -8.6866716508
 C        10.3765711339       -4.2092170529      -10.5828223820
 C         8.7862322005       -4.1585787224      -10.7398736673
 O         8.2752799127       -4.1846975072      -11.8509259640
 C         8.0190114237       -3.6658359952       -9.5051201860
 C         7.3133711127       -4.9645001279       -8.8851901777
 C         6.9949983790       -4.9346067259       -7.4048131880
 O         7.7469559649       -5.3434512724       -6.5511847434
 C         5.5467753641       -4.4209333925       -6.8523390569
 C         4.2817904083       -5.2298442122       -7.4766417798
 O         4.2020016935       -6.4558958719       -7.4538216389
 C         2.8893591987       -4.5928032668       -7.7478382532
 C         2.0293349990       -5.3138869523       -8.8515150195
 C         0.9824397830       -4.3608473375       -9.4219488943
 O         1.2737017785       -3.5774105524      -10.3325181259
 C        -0.4956230247       -4.4058989575       -9.0575869804
 C        -1.1717576309       -5.4407312865      -10.1244841429
 O        -0.5790023017       -6.4682259779      -10.2808185143
 C        -2.5249850040       -5.2348888287      -10.8812067965
 C        -2.4672495616       -5.4317017787      -12.4509717251
 C        -3.2232464197       -4.3408458470      -13.2054355863
 O        -3.0715881156       -3.1346781611      -13.1862391579
 C        -4.4130597321       -4.8281188367      -14.2014162894
 C        -5.6359515096       -5.4429594575      -13.5892504319
 O        -5.5383392168       -6.5172817722      -12.9944929967
 C        -6.8993844819       -4.6266134685      -13.5040715932
 C        -8.0295471564       -5.1108445820      -14.5274074606
 C        -8.9447841187       -3.9188819565      -14.9148038151
 O        -8.4783858828       -2.8729317001      -15.3771646838
 C       -10.5023517371       -4.0206384497      -14.6735730554
 C       -10.6935202600       -3.9218813020      -13.0779627087
 O       -10.3024054832       -4.8012228987      -12.3960311586
 C       -11.3193669157       -2.6460364632      -12.4878831617
 C       -11.0852493106       -2.4468086493      -10.9123878517
 C       -10.9853126875       -0.9227379679      -10.6057520166
 O       -11.5943093644       -0.1153272851      -11.3232278774
 C       -10.0230483573       -0.4876096990       -9.2258617227
 C        -8.9164959461        0.4793379682       -9.5981522812
 O        -9.1299631790        1.6597524877       -9.6226631924
 C        -7.4933102919        0.0332183945       -9.8838915514
 C        -6.9657079161        0.4342259312      -11.2183731377
 C        -8.0589249289        0.2105251215      -12.3121163870
 O        -8.9476209591       -0.6523974544      -12.1661853917
 C        -7.9751044112        0.9929281508      -13.6608226958
 C        -8.7917308571        2.2853801667      -13.5304766777
 O        -9.5739816893        2.4915194212      -12.6222062539
 C        -8.5091765721        3.3314989771      -14.6572248967
 C        -9.8697051728        3.9803329572      -15.0436966973
 C       -10.2140197901        5.0105262780      -13.9514880752
 O        -9.4293592501        5.1702581098      -13.0386150890
 C       -11.6762466684        5.7869656076      -13.9565956910
 C       -12.5622037864        4.8792632161      -12.8391304320
 O       -12.4802904235        3.7024588061      -12.8024372032
 C       -13.7547085291        5.5860366108      -11.9556293186
 C       -14.0104323165        5.1688602122      -10.5274858428
 C       -14.2035101466        3.6990631802      -10.2557870761
 O       -13.3100022289        2.9263140139      -10.0594557485
 C       -15.7161708530        3.2423984002      -10.2004667361
 C       -16.2496983965        3.7743225913       -8.8889667327
 O       -15.4312075450        4.1959296495       -8.0738688034
 C       -17.7132485229        3.8707565959       -8.6132305257
 C       -18.4161037030        5.2387470051       -8.5617924774
 C       -19.5684867004        5.5270797743       -9.6323557047
 O       -19.9375476966        4.5502221824      -10.2871560552
 C       -20.1956017196        6.8862110785       -9.9850958039
 C       -19.2194745526        7.9013081435      -10.6400634539
 O       -18.0278031129        7.8214380646      -10.3798962020
 C       -19.8025599794        8.9372454944      -11.5694002021
 C       -21.4280252762        6.6335581098      -10.9791643700
 C       -20.6722769584        7.6365218008       -8.7612409496
 C       -16.5803712388        3.8361937377      -11.4341251362
 C       -15.6246666785        1.6241358453      -10.3662408255
 C       -11.5390761537        7.3119477382      -13.7051038544
 C       -12.3464010216        5.5056540359      -15.2667583130
 C        -6.4944441329        1.3338100033      -13.8831677291
 C        -8.7024458279        0.1312335748      -14.6733506142
 C       -11.0414249002        0.2806436180       -8.3371066647
 C        -9.5202234016       -1.7687581432       -8.4821916188
 C       -11.3372500682       -2.9950759101      -15.4438974047
 C       -11.1345211608       -5.3778487887      -15.0690856451
 C        -4.5874920831       -3.5980111447      -15.1717682477
 C        -3.8160404943       -6.0359158429      -15.0688127231
 C        -0.7882386032       -5.1165831677       -7.6839010539
 C        -1.0088938763       -2.9626948953       -9.0783617479
 C         5.5377430599       -4.4627665904       -5.3447259884
 C         5.3316807377       -2.9392056675       -7.2283148861
 C        10.8744769236       -2.7482258352      -10.6752371083
 C        10.8586740293       -4.9984205209      -11.8650685928
 C        15.6716810842       -4.5512845853       -6.1979532476
 C        15.2777989465       -7.0396807615       -6.2528978207
 C        11.0511933545       -4.3383587484       -1.4753720719
 C         8.9284423138       -5.1332555340       -2.8090250326
 H        11.2916423857       -1.6528543334       -3.1655622244
 H         9.7071072832       -2.0172352974       -2.6998771724
 H        10.0947138489       -1.5238620255       -4.2813238874
 H        12.2241303746       -7.4012279481       -2.0517598259
 H        13.0681304317       -5.7652103987       -2.0992975077
 H        12.9694865221       -7.6315581888       -4.5054404995
 H        14.3414490812       -7.5309209924       -3.1738551373
 H        14.0530347652       -4.3095728085       -8.3251987632
 H        12.5251629471       -3.5043235754       -7.7282102732
 H        12.6323325513       -6.0860625760       -9.2302899652
 H        12.8821615053       -4.5605849207      -10.1597069224
 H         7.1360013984       -3.0114313500       -9.8359286297
 H         8.5822025281       -3.0435563304       -8.7854477526
 H         7.9281018123       -5.8509449450       -9.2037221349
 H         6.3340222999       -5.0858143090       -9.2693432452
 H         3.0221638716       -3.5316577825       -8.0016525895
 H         2.4538829039       -4.6147612215       -6.7224012422
 H         1.5688148259       -6.2573494829       -8.4573554333
 H         2.7010998698       -5.6139798234       -9.6694595036
 H        -2.8004879096       -4.1827560052      -10.6273298541
 H        -3.2988939779       -5.7586425139      -10.4035842578
 H        -2.9762063427       -6.3537057395      -12.6755173841
 H        -1.3367602270       -5.4352704937      -12.7261838599
 H        -6.5779946126       -3.6649364146      -13.7009551457
 H        -7.2132710457       -4.7501726868      -12.4963489290
 H        -8.6954043452       -5.9430548892      -14.1374048962
 H        -7.5480224813       -5.3929351394      -15.5100320752
 H       -12.3711303042       -2.3828724171      -12.6339297980
 H       -10.7520466227       -1.8323327848      -12.9372323285
 H       -10.1602610087       -2.8755655824      -10.6008237015
 H       -11.9877445173       -2.8125294566      -10.3905284209
 H        -7.3677136948       -1.0462112779       -9.9070451011
 H        -6.8579313407        0.4822527047       -9.0694275497
 H        -6.0788120801       -0.1560437414      -11.3826087183
 H        -6.7578489861        1.5708763409      -11.2033903978
 H        -8.0852481022        2.8948188326      -15.4959109662
 H        -7.7937793395        4.0475083314      -14.1923316253
 H       -10.5539338780        3.1931432817      -15.2492007109
 H        -9.6382446956        4.5687569766      -15.9682237186
 H       -14.6406603527        5.4284315847      -12.5544482119
 H       -13.7888971010        6.6335725625      -11.8838782099
 H       -14.8463754486        5.7263321378      -10.0684480227
 H       -13.1388509804        5.4594002351       -9.9391552659
 H       -17.9404245583        3.5391368880       -7.6021722577
 H       -18.2330660920        3.1261238553       -9.2467775243
 H       -17.7897239232        6.0787912760       -8.8308698217
 H       -18.8182979867        5.4847605102       -7.5595301911
 H       -20.0741951925        9.7930148373      -10.9646780831
 H       -20.6057289021        8.4834771226      -11.9701566721
 H       -19.0151038126        9.2295962468      -12.2035468367
 H       -22.2635827500        7.3444897321      -10.7221357061
 H       -21.8402993974        5.5856740435      -11.0057068413
 H       -21.2001142306        6.7826947174      -11.9944638638
 H       -19.8995360363        8.2088358931       -8.1751537087
 H       -21.1851594784        6.9409437709       -7.9419141083
 H       -21.3299884062        8.3414728762       -9.1855430190
 H       -17.3877658307        3.1507926669      -11.6930717203
 H       -15.9497786974        3.9525033281      -12.3217086462
 H       -17.0585099483        4.8207442458      -11.4328102656
 H       -15.6421504806        1.0822849850       -9.4483341274
 H       -14.6115301234        1.5646871407      -10.7887308112
 H       -16.2728608671        1.2967510287      -11.1538906456
 H       -11.1241387469        7.8453084518      -14.5373122365
 H       -10.8693262686        7.5114015644      -12.9026829891
 H       -12.5174679181        7.5038449638      -13.3151817167
 H       -12.2718528937        4.5009182439      -15.5757740727
 H       -11.8786952964        6.0849322646      -16.0625611203
 H       -13.3819132074        5.7524700617      -15.0907491325
 H        -5.9515000540        0.4901402722      -14.1383644582
 H        -6.0008191155        1.8222434136      -12.9413517857
 H        -6.2016474252        1.9848803832      -14.6815446549
 H        -8.2111842068       -0.8201820207      -14.8984105760
 H        -8.7931525689        0.6480378766      -15.6660335348
 H        -9.6128314955       -0.1811464011      -14.2935653096
 H       -11.3651744693        1.2464982558       -8.5401874259
 H       -10.7309996054        0.3841967857       -7.2787248971
 H       -11.9877207814       -0.2879013776       -8.2606397863
 H       -10.3067722988       -2.2410592926       -7.9881456524
 H        -8.8661286316       -1.4591770631       -7.6297426702
 H        -9.1005047306       -2.4548778996       -9.1551541915
 H       -12.3877036215       -3.0863422222      -15.2751867550
 H       -11.1813194676       -3.1247492377      -16.5131132125
 H       -11.0558015229       -1.9804471667      -15.1791259911
 H       -12.2109675010       -5.1977213556      -15.2724722006
 H       -11.1581737022       -6.0987696150      -14.2040171007
 H       -10.6160880494       -5.9022383950      -15.8721935834
 H        -5.3297224189       -3.6042970500      -16.0060339644
 H        -3.5990654463       -3.4410626773      -15.5080144086
 H        -4.6409995720       -2.6806448167      -14.5701452230
 H        -2.9857247760       -5.9428854480      -15.6429164145
 H        -4.6388564119       -6.3277560505      -15.8387511336
 H        -3.8514622633       -6.8805118714      -14.4158876142
 H        -0.6808297386       -6.1779059676       -7.8163343832
 H        -1.8546730611       -5.0412758075       -7.3861538566
 H        -0.1999222603       -4.6782790266       -6.8001008087
 H        -0.4700364458       -2.4528964810       -9.8439504157
 H        -0.8052387652       -2.4320236996       -8.1855612785
 H        -2.0928430750       -2.9231206050       -9.1129161228
 H         5.7067618425       -5.4123705047       -4.8610871929
 H         4.5152126005       -4.2493965028       -5.0254751745
 H         6.2202260470       -3.8393975286       -4.8168920533
 H         6.2774300919       -2.5000375635       -7.4662745222
 H         4.7678599100       -2.2801901434       -6.4560400882
 H         4.7689304638       -2.7802922085       -8.1822127170
 H        10.6395011684       -2.3208613242      -11.6468486895
 H        11.9879505820       -2.6764691446      -10.5156898774
 H        10.4997242067       -2.0551271078       -9.9786258985
 H        11.9166764037       -5.1359133190      -11.6823609496
 H        10.6359403436       -4.3810135327      -12.6972544243
 H        10.3089425199       -5.8969889741      -11.9017709104
 H        15.8351846244       -4.1882857209       -7.1957134367
 H        16.6799300461       -4.8565222794       -5.8568957943
 H        15.3717326659       -3.7164342692       -5.5493196085
 H        15.8092966452       -7.3752895138       -5.3717345568
 H        15.9650772664       -6.8090448124       -7.0955136635
 H        14.5953528571       -7.8543896994       -6.5598734645
 H        10.3678065151       -3.6206896808       -1.0453366272
 H        12.0161959302       -3.8025286908       -1.5992936266
 H        11.1515205171       -5.2111682423       -0.8862453255
 H         8.8568309979       -6.0457988105       -2.2877604977
 H         8.5461525990       -5.3506747192       -3.7980559103
 H         8.3205682977       -4.3723808424       -2.2761560364
 Na       10.0770253913       -5.7879751561       -6.3398085819
 Na      -11.1296237799        2.2454804121      -10.9192150325
