232

 C        10.4860645646       -2.1947000080       -3.4256748630
 C        10.2046734930       -3.5552810155       -3.9451984371
 O        10.1994916334       -3.7976810252       -5.1544573260
 C        10.0660780516       -4.7887554737       -2.9652328220
 C        11.0506810774       -6.0438485656       -3.4520063591
 O        10.7644543074       -6.5587429762       -4.5128832501
 C        12.3449323449       -6.3945716180       -2.7282327373
 C        13.3967053154       -6.9004708510       -3.8031746694
 C        14.1976493578       -5.7038031239       -4.4873393907
 O        14.4646609243       -4.7577958204       -3.7348758078
 C        14.6442295778       -5.7087528843       -5.9743553280
 C        13.3457872858       -5.5382146082       -6.8264222526
 O        12.5746632405       -6.4898421096       -6.8252479629
 C        13.0797380875       -4.4484600884       -7.9326979201
 C        12.4993345595       -5.0043492323       -9.2659556280
 C        10.9944605167       -4.8015908420       -9.4741806490
 O        10.2471644993       -5.2730566848       -8.6052023967
 C        10.4203316792       -4.1854378620      -10.7382469427
 C         8.8078871481       -3.9911123585      -10.5523117898
 O         8.1800833901       -4.0240231320      -11.5882154083
 C         8.0684074330       -3.8693575611       -9.2182898809
 C         7.0492757660       -5.1096461599       -8.9740630216
 C         6.9377849035       -5.0137739359       -7.4041883031
 O         7.8152070643       -5.3295979537       -6.6247828698
 C         5.5803121472       -4.4076119791       -6.9894059767
 C         4.4101083068       -5.4092994906       -7.4977469935
 O         4.5244782526       -6.6439426529       -7.4116660946
 C         3.0471641350       -4.7255316959       -7.6766646654
 C         2.1135775344       -5.5028191241       -8.6223938464
 C         1.1395346634       -4.4523428142       -9.1884897973
 O         1.5134356874       -3.5575731456       -9.9299607101
 C        -0.5429192241       -4.5416049195       -8.8691104508
 C        -1.0220432460       -5.3558988869      -10.1947860505
 O        -0.5852313669       -6.4558566848      -10.3597368372
 C        -2.0897902445       -4.7026517915      -11.0157871273
 C        -2.4422205820       -5.3164473757      -12.4782230651
 C        -3.3253257795       -4.4017294472      -13.2862834414
 O        -3.2223937651       -3.1748635179      -13.1128292965
 C        -4.3894897116       -4.9365994010      -14.2675413355
 C        -5.6193284685       -5.4614367352      -13.4510723415
 O        -5.5305475861       -6.4750267917      -12.7501875735
 C        -7.0013159097       -4.7285447549      -13.4680053975
 C        -7.9199569925       -5.1833657977      -14.6352254747
 C        -8.9820444428       -4.0792499955      -14.8492271989
 O        -8.6126986771       -2.9804326045      -15.2873886387
 C       -10.5595556206       -4.3400316463      -14.5291460683
 C       -10.6789272202       -4.0346595537      -13.0149457706
 O       -10.1764995847       -4.8338285401      -12.2893554118
 C       -11.1326862014       -2.5776106198      -12.5367773432
 C       -10.6815061870       -2.3902587859      -11.0529580153
 C       -10.8266558394       -1.0280541921      -10.4763665762
 O       -11.4569915185       -0.1736142054      -11.1074263202
 C       -10.0255795807       -0.7460274984       -9.1887809755
 C        -9.0238366063        0.4808342715       -9.5339340590
 O        -9.5755715237        1.4920161192       -9.8712530376
 C        -7.4740648277        0.2435837336       -9.8794455598
 C        -7.0992495162        0.8652845633      -11.3252434436
 C        -7.9819741173        0.3363965398      -12.4352028205
 O        -8.7190811107       -0.6363006180      -12.2444704589
 C        -7.9097025217        0.9665391565      -13.8358347945
 C        -8.7329160365        2.2413836567      -13.6120059736
 O        -9.4737403161        2.3547340570      -12.6506303663
 C        -8.6745748253        3.3425880827      -14.7237347385
 C       -10.0816250953        4.0026656700      -14.9647073507
 C       -10.2903665005        5.3124792357      -14.0560199896
 O        -9.3955553752        5.6955203117      -13.3529729658
 C       -11.8040106919        5.9390764427      -13.9295848537
 C       -12.6159600114        5.0171110265      -12.7973550442
 O       -12.1490118730        3.9485991376      -12.5730436872
 C       -13.9844011164        5.4706910527      -12.3055455101
 C       -14.0162029273        5.2577977200      -10.7245202249
 C       -14.2443759424        3.8003843518      -10.4493551656
 O       -13.3412355544        3.0905643659      -10.0925369928
 C       -15.6979000111        3.3696945982      -10.2779228336
 C       -16.1450735431        3.9052585666       -8.8467902138
 O       -15.2735867453        4.3465920813       -8.1121354838
 C       -17.6521791008        3.8869666092       -8.5232442697
 C       -18.1164958777        5.3822817790       -8.7009218287
 C       -19.3457551659        5.4255383941       -9.6717770111
 O       -19.7354767671        4.4075380423      -10.1618034385
 C       -20.1387736052        6.7794077954       -9.7323738623
 C       -19.1875854242        7.7942577112      -10.5619953727
 O       -17.9973875973        7.4898798029      -10.6145643388
 C       -19.7035515072        9.1392071664      -11.0333786168
 C       -21.4742585083        6.5674004200      -10.4825817843
 C       -20.4793300114        7.3587839107       -8.2804477615
 C       -16.5910396235        3.6574786068      -11.5164848987
 C       -15.7821943531        1.8149867322       -9.9493382889
 C       -11.7323360485        7.4034009165      -13.5805195780
 C       -12.6127611216        5.7617528888      -15.1961718823
 C        -6.4473743747        1.2031963508      -14.2390184348
 C        -8.7908661129        0.1122693214      -14.7954100726
 C       -11.0549432336       -0.1251331238       -8.2418921818
 C        -9.3114073597       -2.0140818969       -8.4955143415
 C       -11.2667558628       -3.2995086047      -15.3744084054
 C       -11.0846228721       -5.7489437368      -15.0646503853
 C        -4.8439986442       -3.6664403662      -15.1700133404
 C        -3.8124422012       -5.9929890388      -15.2444532387
 C        -0.6768583277       -5.2619533718       -7.4878299246
 C        -1.0906045221       -3.0565637841       -8.8340119161
 C         5.4868121574       -4.4011466036       -5.4821369848
 C         5.4711575057       -2.9332208066       -7.5106967948
 C        10.9722581224       -2.7180982046      -10.8118011275
 C        10.6968126998       -4.9409929600      -12.0854836256
 C        15.5851784582       -4.4813259332       -6.1793334469
 C        15.2662343087       -7.0521430322       -6.4294166085
 C        10.3887017469       -4.3395685234       -1.5381860921
 C         8.5871667237       -5.4518617156       -3.0572989322
 H        11.1639419933       -2.2832653484       -2.4690670173
 H         9.6819714544       -1.5655337018       -3.1491671635
 H        11.1208691537       -1.6730667787       -4.1238974090
 H        12.2654825928       -7.1477014881       -1.9234338862
 H        12.8029890726       -5.4811623225       -2.2831649655
 H        12.7871123816       -7.4985609301       -4.5224527439
 H        14.0452270739       -7.5252993526       -3.2971915673
 H        13.9930893617       -4.0323345709       -8.3381564923
 H        12.4732676401       -3.6580810852       -7.5386550437
 H        12.8014583207       -6.1143970423       -9.2301798986
 H        13.0006183959       -4.5792822371      -10.1545035677
 H         7.5601367663       -2.9592581260       -9.1164843283
 H         8.7635007976       -3.8518229880       -8.4247194867
 H         7.4598861391       -6.0710929213       -9.3505335949
 H         6.1429530170       -4.8899439874       -9.5075803211
 H         3.1892952413       -3.7014751520       -7.9754937546
 H         2.6268393381       -4.6554942100       -6.6499079027
 H         1.4784559502       -6.2488895357       -8.1351239578
 H         2.6878755811       -5.8636712388       -9.4513463387
 H        -2.0492986656       -3.5587473374      -11.0586544588
 H        -2.9502965493       -4.8580680008      -10.4697154483
 H        -2.9379793809       -6.3166159328      -12.4048603820
 H        -1.4523399678       -5.4109224645      -13.0627875313
 H        -6.6583077190       -3.6967000638      -13.7383101719
 H        -7.4832766396       -4.8527987578      -12.4180675491
 H        -8.4416649703       -6.1493502606      -14.4872993608
 H        -7.4068013187       -5.2105007065      -15.5524818258
 H       -12.2544154008       -2.6244439042      -12.5952993154
 H       -10.7732106972       -1.7642130531      -13.1729456484
 H        -9.6602751373       -2.6369609057      -11.0371487111
 H       -11.3597355329       -3.0615807565      -10.4257357219
 H        -7.3220391621       -0.8133718602       -9.9487451117
 H        -6.7613505005        0.6414673749       -9.1470516693
 H        -6.0978739484        0.6418227572      -11.6294826074
 H        -7.3306032445        1.9949999120      -11.2711437995
 H        -8.2830104249        2.8525922753      -15.6397185394
 H        -8.0932894158        4.2065963112      -14.5187753960
 H       -10.8419923899        3.2838553060      -14.6673157510
 H       -10.1747625456        4.1755022647      -16.0258648339
 H       -14.8627275836        5.0041441923      -12.7578887852
 H       -14.1758498866        6.5442310480      -12.5167266235
 H       -14.8321772034        5.7430093633      -10.2541679045
 H       -13.0993432138        5.5758146574      -10.2450221589
 H       -17.9748700575        3.4153989822       -7.5921716454
 H       -18.1683337927        3.3192917238       -9.2804309941
 H       -17.3313391916        6.0010456676       -9.2259676173
 H       -18.3971262582        5.9759881466       -7.8315274291
 H       -19.6507553492        9.7092090366      -10.0487789948
 H       -20.7364936538        8.9729583686      -11.3314937603
 H       -18.9581147202        9.5954622446      -11.7523966773
 H       -21.8469990658        7.4071515565      -11.0472770433
 H       -22.3122100674        6.3487677173       -9.8178238261
 H       -21.3554550151        5.7453817622      -11.1432108187
 H       -19.6580323864        7.3707227037       -7.6026942263
 H       -21.2883207602        6.6266907911       -7.9965404744
 H       -20.8843139356        8.3501095049       -8.2564785908
 H       -17.6083651617        3.3438778217      -11.2541644064
 H       -16.3367047618        3.1995300497      -12.4607298108
 H       -16.7194734511        4.6783196579      -11.8522767985
 H       -16.8600294029        1.6875926986       -9.7902982666
 H       -15.2672668506        1.5333895464       -9.0404808409
 H       -15.4308720888        1.3172663288      -10.8457873755
 H       -11.5874093186        7.8964589914      -14.5653659041
 H       -10.7282120247        7.4723383429      -13.0776559989
 H       -12.3697465012        7.8570581736      -12.8162451474
 H       -12.7226965745        4.6547631981      -15.2933025289
 H       -12.0879023538        6.1080352503      -16.0732854566
 H       -13.5960278356        6.3226415610      -15.1143344391
 H        -5.8247635640        0.4246613699      -13.9341406967
 H        -5.9939794331        2.1464756239      -13.9026452583
 H        -6.2770070815        1.2796150990      -15.2413212809
 H        -8.4984814554       -0.9142363318      -15.0205234050
 H        -8.8826241952        0.6151256880      -15.7861856489
 H        -9.7554841279        0.0770741132      -14.3856513866
 H       -11.7068373689        0.5591291184       -8.7342658218
 H       -10.6725399227        0.3738780155       -7.3701830339
 H       -11.8669092470       -0.8108368320       -7.8064571081
 H        -9.9858742785       -2.7875971018       -8.2820803642
 H        -8.9296282156       -1.6039979765       -7.4994532423
 H        -8.5749668245       -2.4544246562       -9.1424132253
 H       -12.2218346497       -3.0750518403      -15.0000262873
 H       -11.6051889090       -3.6651139520      -16.3920547642
 H       -10.6121007521       -2.3841477170      -15.3988389067
 H       -12.1221677846       -5.8134152141      -14.7499251144
 H       -10.5592576768       -6.6038230092      -14.7776978721
 H       -11.0335550170       -5.7207642226      -16.1231482354
 H        -5.6147606485       -4.0792146224      -15.8370204169
 H        -4.0297915291       -3.3508194664      -15.8018896554
 H        -5.2821302386       -2.7920463272      -14.6477146241
 H        -2.9637745170       -5.5818415471      -15.6670344673
 H        -4.3815607840       -6.1773061186      -16.1843252045
 H        -3.6453121002       -6.9768448151      -14.7768666994
 H        -0.3958508966       -6.2977360911       -7.7020312795
 H        -1.7016509234       -5.2598493232       -7.1516436985
 H        -0.0145416928       -4.8778221694       -6.7314174121
 H        -0.9348919415       -2.4113256562       -9.7279172682
 H        -0.4613790007       -2.5005083763       -8.1290280770
 H        -2.1294158230       -3.0781144247       -8.4536637074
 H         5.2938304486       -5.4106274995       -5.0085230978
 H         4.6166634708       -3.8183907335       -5.1126034005
 H         6.2838397360       -3.9690998243       -4.9423561309
 H         6.3204014196       -2.4007893977       -7.3726781172
 H         4.6195023802       -2.3475178680       -7.0671507518
 H         5.3920366682       -2.9677375653       -8.5663349969
 H        10.7978675807       -2.2352531586      -11.7392823296
 H        12.0410181278       -2.6853029021      -10.5172655014
 H        10.5471531008       -1.9840920315      -10.1467781584
 H        10.5968778681       -5.9783707864      -11.7729226944
 H        11.7229232094       -4.5901642835      -12.3827670278
 H         9.9779193916       -4.5773010350      -12.7908109143
 H        16.0910134001       -4.6708008267       -7.1446108931
 H        16.3220910145       -4.3661813049       -5.3874177484
 H        15.1247721730       -3.5253418698       -6.2560899636
 H        16.3383595159       -6.9324424691       -6.2941979587
 H        15.1489352679       -7.2618918372       -7.5088087274
 H        14.9481178228       -7.7904299763       -5.7271729414
 H         9.7607433198       -3.4687003115       -1.4032468230
 H        11.4888441394       -4.0585297719       -1.4355796208
 H        10.2833109604       -5.1245169591       -0.8076832161
 H         8.4693125892       -5.9938700149       -2.1465735427
 H         8.3480371897       -6.0743791163       -3.9336693364
 H         7.8074234098       -4.6254886651       -3.0977729151
 Na       10.2247715919       -5.6969180459       -6.4590857403
 Na      -11.3720234207        2.3533794259      -10.8885257241
