232

 C        10.5507299591       -2.3373511449       -3.2598022400
 C        10.1999299351       -3.6150463313       -3.8761711718
 O        10.1373586823       -3.6769003672       -5.0931551461
 C         9.8493689604       -4.9785606306       -3.0648897784
 C        10.8623815425       -6.0328485410       -3.6268855711
 O        10.5898879845       -6.6980108804       -4.6089584742
 C        12.2117079878       -6.1646373807       -3.0356131985
 C        13.3093755048       -6.6703959714       -4.0187096969
 C        14.0616009994       -5.4687571386       -4.5910943097
 O        14.2657548552       -4.3876138204       -4.0811577879
 C        14.6187224585       -5.6461759178       -6.1382884658
 C        13.3840645031       -5.7260826454       -7.0165032366
 O        12.4966917678       -6.5622818013       -6.7987249915
 C        13.1313860260       -4.5165464984       -7.9213048184
 C        12.6164624035       -4.7273521543       -9.3741595535
 C        11.1276127681       -4.7343397706       -9.5335424634
 O        10.3779148239       -5.3394072671       -8.7685162019
 C        10.4811566472       -4.0247953288      -10.8249833649
 C         8.9038869139       -3.9798712111      -10.7345143521
 O         8.2640445568       -4.0727424249      -11.7701618321
 C         8.1454597767       -3.5962287369       -9.3385626300
 C         7.4791467616       -4.8650502335       -8.6187683391
 C         6.9612552657       -4.9190907654       -7.1738686536
 O         7.5581031284       -5.6200622590       -6.3379873760
 C         5.6403007815       -4.3184522582       -6.8583392412
 C         4.4672228904       -5.4513904180       -7.5538387640
 O         4.8354244876       -6.5746260019       -7.8448536089
 C         3.0163747075       -4.8343582904       -7.5661497597
 C         2.1499545053       -5.5601381549       -8.5731648756
 C         1.1008326814       -4.4823462994       -8.9510852828
 O         1.5830227562       -3.5297632125       -9.5099730097
 C        -0.4376725407       -4.6259956119       -8.9453341738
 C        -0.9541716743       -5.2555314237      -10.3552030499
 O        -0.9223439016       -6.4395652464      -10.5443887785
 C        -1.6032989656       -4.3571892704      -11.3873107326
 C        -2.7729650149       -5.0862356271      -12.0173907466
 C        -3.4663072410       -4.2549002785      -13.0625333683
 O        -3.4384433204       -3.0271864486      -12.8799965318
 C        -4.3959231886       -4.9026651573      -14.2071699356
 C        -5.6385411733       -5.4657630753      -13.4230618749
 O        -5.4246061993       -6.4569760153      -12.6967697808
 C        -7.0223419080       -4.8248800747      -13.3925380564
 C        -7.9150778835       -5.2243892068      -14.5277502459
 C        -8.9450794121       -4.2137378492      -14.9295985607
 O        -8.6476948031       -3.1055275163      -15.3807211654
 C       -10.4208887399       -4.5175382152      -14.5544242932
 C       -10.5478436958       -4.1856004117      -13.0389773250
 O       -10.1912284735       -5.0002697077      -12.2139843579
 C       -10.8042506482       -2.7488815476      -12.5274139431
 C       -10.5041333690       -2.5914023858      -11.0068589426
 C       -10.7346302340       -1.0464520215      -10.5437378709
 O       -11.5071953428       -0.3474847133      -11.1094956279
 C        -9.9384976551       -0.6021141233       -9.1431414418
 C        -9.1089165970        0.5386673871       -9.5892006729
 O        -9.6539491001        1.6517958157       -9.6730259812
 C        -7.6659586696        0.3162091416       -9.8988005692
 C        -7.2790232502        1.1205432493      -11.2589811167
 C        -7.9027794540        0.3450996204      -12.3998021840
 O        -8.1787107101       -0.8456583939      -12.2976847961
 C        -8.0689564496        1.0404751678      -13.8237074759
 C        -8.9740551549        2.3592848335      -13.7259872057
 O        -9.6048278023        2.5081139007      -12.7061822069
 C        -8.9430869084        3.3579981987      -14.8968301002
 C       -10.2513227815        4.1597274184      -14.9432953163
 C       -10.3428533083        5.5529038536      -14.2218087767
 O        -9.4374224990        6.1976840264      -13.7560084953
 C       -11.7929268591        6.0383775962      -14.0432466428
 C       -12.3655030767        5.1040248603      -12.8657550173
 O       -11.6188290445        4.3289926488      -12.2957470769
 C       -13.7787958968        5.4063785127      -12.4740725148
 C       -14.1674106317        5.1397448771      -10.9228168233
 C       -14.2284888445        3.6913690914      -10.4333266245
 O       -13.2447206112        2.9673374698      -10.3667591717
 C       -15.6524478309        3.1740878110       -9.9909866767
 C       -16.0348486200        3.9746088855       -8.6263987832
 O       -15.2172499037        4.5805570219       -7.9665000729
 C       -17.5035407126        3.9603345098       -8.1312934678
 C       -18.1156036744        5.3671667296       -8.5322455388
 C       -19.3529692399        5.3283859613       -9.5606726092
 O       -19.7325808194        4.4249303117      -10.1701066581
 C       -20.1372637215        6.7796954977       -9.6172339870
 C       -19.2713457910        7.7707520473      -10.4035185281
 O       -18.2860521952        7.3282057893      -11.0015107415
 C       -19.5715410947        9.2891495398      -10.3139966816
 C       -21.5906341426        6.6093521986      -10.1892192037
 C       -20.3023750413        7.2860073804       -8.1482993098
 C       -16.8046339967        3.6415003034      -10.9785014477
 C       -15.7551247559        1.5447958765       -9.8839513851
 C       -11.7493246190        7.4233547614      -13.5051429599
 C       -12.6177700412        5.9249214980      -15.3479205827
 C        -6.7159710229        1.4001366027      -14.4251383043
 C        -8.6667119067        0.0638216316      -14.9673476724
 C       -11.0855139420       -0.2770253859       -8.1026763552
 C        -9.0281890248       -1.8440168257       -8.6708181596
 C       -11.3313980774       -3.6289227512      -15.4348583422
 C       -10.8042964687       -6.0028481759      -14.6999722754
 C        -4.8344261095       -3.9356057597      -15.3062127100
 C        -3.7093495601       -6.1579834505      -14.9208308361
 C        -0.9490465260       -5.6542455275       -7.9246382493
 C        -1.1222846195       -3.2853433774       -8.6580937562
 C         5.5049581280       -4.4062255881       -5.3864158897
 C         5.4385232565       -2.8348531182       -7.3766425026
 C        11.0447068925       -2.6026279744      -10.8697032142
 C        10.9102148458       -4.9395379864      -12.1054766398
 C        15.5518699460       -4.5459851114       -6.3730126988
 C        15.3742495787       -7.0889940900       -6.0936395592
 C        10.0506382184       -4.7357577196       -1.5218689864
 C         8.3488659370       -5.2414409323       -3.4780158765
 H        11.5687979122       -2.5489011436       -2.7004819567
 H         9.8554864851       -2.1756430494       -2.4081599310
 H        10.5427033780       -1.4123895251       -3.8265605979
 H        12.0934936527       -6.7637099317       -2.1607940248
 H        12.6359835644       -5.2184509157       -2.6075339267
 H        12.7967692787       -7.2264268790       -4.8110167323
 H        14.0008415802       -7.3212331359       -3.5744339355
 H        13.8821001056       -3.6748034825       -7.9991226312
 H        12.2846429684       -4.0117201000       -7.4620586221
 H        13.0444107248       -5.6348303635       -9.8682426868
 H        12.9656741777       -4.0150483526      -10.0520747934
 H         7.5102523318       -2.7386644584       -9.6608324641
 H         8.9228115911       -3.2139088134       -8.5569186129
 H         8.2497745364       -5.6430863743       -8.6048800452
 H         6.7808615181       -5.2523611377       -9.4058975316
 H         3.1690842608       -3.7849400379       -7.8196129039
 H         2.4743935826       -4.8479458547       -6.6161699019
 H         1.6455972341       -6.4082620365       -8.1004034555
 H         2.7542508549       -5.7838237031       -9.4541382068
 H        -0.9806417962       -3.9440118236      -12.2150617644
 H        -2.1191041748       -3.4708499039      -10.9697764086
 H        -3.5349587585       -5.3065032134      -11.3064385384
 H        -2.5076102279       -5.9495598240      -12.5066439696
 H        -6.9087749748       -3.7540225257      -13.3170029343
 H        -7.3902266875       -5.1481206480      -12.4151474774
 H        -8.3780202284       -6.1989765703      -14.3749051049
 H        -7.3365610658       -5.3170320070      -15.4191971810
 H       -11.8446052646       -2.5310063257      -12.7815232916
 H       -10.2101548169       -2.1530505124      -13.1930682053
 H        -9.4461490353       -2.8275946935      -10.9501724877
 H       -11.1224230343       -3.3252817250      -10.4685594189
 H        -7.3905039332       -0.7419728961      -10.0247536148
 H        -7.0096494834        0.7012724495       -9.1147833042
 H        -6.2157631317        1.1643610648      -11.4235984747
 H        -7.7539783191        2.0659195202      -11.1651731948
 H        -8.8068158280        2.7225754876      -15.9005997509
 H        -8.0129068645        3.9532815060      -14.7952188318
 H       -10.9580214155        3.3272671159      -14.6310064236
 H       -10.5673531219        4.3533520527      -15.9867497047
 H       -14.5384958130        5.0088571233      -13.1677217932
 H       -14.0164825622        6.5289146575      -12.4775849298
 H       -15.1624425414        5.5634585845      -10.6870493794
 H       -13.3428212138        5.6870692138      -10.3331970521
 H       -17.3919425216        3.6870336627       -7.0398982074
 H       -18.0347854701        3.1142123114       -8.5983517633
 H       -17.3247997665        5.8942556551       -9.0765427245
 H       -18.4088576022        5.9389527610       -7.7096822349
 H       -19.4549005860        9.4988001288       -9.2740535644
 H       -20.5892215276        9.4506101622      -10.6422849296
 H       -18.8717438883        9.8344623075      -10.9647568335
 H       -21.8781971478        7.4399440066      -10.8297514698
 H       -22.3589025829        6.6552459769       -9.4245265107
 H       -21.6733371931        5.7051579714      -10.8650218917
 H       -19.4638793276        7.9051213193       -7.9951994470
 H       -20.4320563850        6.4725286829       -7.4675015981
 H       -21.1923929155        7.9606402071       -7.9939433724
 H       -17.8124276125        3.2865932931      -10.7980095179
 H       -16.6032889246        3.3061513044      -11.9906636025
 H       -16.9206357857        4.7135661889      -11.1115229150
 H       -16.7453593884        1.3408106478      -10.3498232626
 H       -15.8466751980        1.2954389219       -8.8660610587
 H       -14.9714256067        1.0195701970      -10.4409741356
 H       -10.9493151559        7.9743429017      -13.9701714579
 H       -11.7699478303        7.3303820630      -12.4225955697
 H       -12.6426184680        7.9855788489      -13.7832343059
 H       -12.6562406116        4.8516765254      -15.5570810104
 H       -12.2244150450        6.5410057741      -16.0811160440
 H       -13.6238159625        6.3321244329      -15.2509380214
 H        -6.1415681471        0.5324072141      -14.8287237996
 H        -5.9056686184        1.8058279772      -13.7327107551
 H        -6.7605772072        2.2370823530      -15.1666430372
 H        -8.0356370593       -0.8457117076      -14.9847453562
 H        -8.7107121388        0.4618104867      -15.9840399522
 H        -9.7338182147       -0.1818044742      -14.7979070117
 H       -11.7221343591        0.5370291339       -8.4335492050
 H       -10.6964509651        0.0317970632       -7.1973045546
 H       -11.8196996047       -1.0615231924       -7.7913112120
 H        -9.6858452172       -2.6695315829       -8.3727384653
 H        -8.3893504949       -1.4448691435       -7.8407404300
 H        -8.2185328540       -2.1449724171       -9.3710284396
 H       -12.3521855647       -3.7944116253      -15.2732729055
 H       -11.1832691480       -3.8801369351      -16.5049536457
 H       -11.0285362405       -2.6008455410      -15.3632335078
 H       -11.9316821345       -6.1480343035      -14.7654252657
 H       -10.3640184771       -6.5791748038      -13.9053452047
 H       -10.3909151042       -6.3529510271      -15.6963564801
 H        -5.3372135613       -4.5142976503      -16.0579381649
 H        -4.0212177019       -3.4916246480      -15.9012042001
 H        -5.5734368054       -3.2659359398      -14.9115476217
 H        -2.8513502052       -5.7089766913      -15.4705215885
 H        -4.3340317086       -6.5457115438      -15.7384567045
 H        -3.2696177132       -6.9878118743      -14.2614681924
 H        -0.5187585046       -6.7006582719       -8.0427424447
 H        -2.0518806857       -5.6403716035       -7.8624589337
 H        -0.4622521202       -5.3041764705       -7.0517966074
 H        -0.9336567861       -2.4869862634       -9.3879392461
 H        -0.7951081682       -2.9596783185       -7.6573745607
 H        -2.1593897766       -3.4693947946       -8.6417040412
 H         5.8493637876       -5.4111582130       -4.9961441323
 H         4.6275694470       -4.1580746991       -4.8250321526
 H         6.1202501571       -3.6182846868       -5.0192415006
 H         6.1317268269       -2.0393481155       -7.0765949487
 H         4.4490728745       -2.4800427180       -6.9660729485
 H         5.4631804404       -2.8381087662       -8.4866931076
 H        10.2941078314       -1.8716791808      -11.1232058632
 H        11.9150836548       -2.3550986545      -11.4778678320
 H        11.2657584651       -2.2118346976       -9.8369569937
 H        10.0117024475       -5.3345895616      -12.4913827558
 H        11.6168352453       -5.7249046352      -11.7588702487
 H        11.3081066067       -4.2003139501      -12.7708132063
 H        15.8696746907       -4.4631159656       -7.4575330954
 H        16.3498074915       -4.6359866148       -5.6421098385
 H        15.1108383008       -3.5953455393       -6.1470919799
 H        15.8083323471       -7.4237054973       -5.1515031168
 H        16.2613060231       -7.0304481820       -6.7321059218
 H        14.5961254985       -7.7431726720       -6.4188972925
 H         9.2202766980       -4.1821614980       -1.1791155410
 H        11.0114741805       -4.3459405384       -1.2346094561
 H        10.0858125197       -5.7069816954       -1.0010157463
 H         7.9619487080       -6.1767715313       -3.1205325058
 H         8.1443554669       -5.0908853993       -4.5258934256
 H         7.7352432654       -4.4582064476       -3.0476897955
 Na        9.8071352396       -5.8582388230       -6.5680269696
 Na      -11.3356946242        2.0652293328      -11.2591468710
