232

 C        10.5533839761       -2.4551951699       -3.1328811870
 C        10.2263035337       -3.6861694760       -3.9253169295
 O        10.1447604734       -3.6531774029       -5.1657359603
 C         9.8065932765       -4.9755330397       -3.1487533784
 C        10.7942988022       -6.1082009624       -3.6451228510
 O        10.4776670267       -6.8242933011       -4.6027036676
 C        12.1868641242       -6.1220959663       -2.9891987322
 C        13.3026729352       -6.5200813667       -3.9370980710
 C        13.9697411734       -5.4047963356       -4.6975741625
 O        14.0724816986       -4.3125434087       -4.1334034435
 C        14.6239441015       -5.6408198036       -6.1234340204
 C        13.3362699120       -5.6554990972       -7.0494072362
 O        12.4591200025       -6.5422830333       -6.9203082778
 C        13.1235498843       -4.4098394073       -7.9182576842
 C        12.6456983189       -4.6379638294       -9.3556310943
 C        11.1237705285       -4.8071982976       -9.5854765102
 O        10.3602922804       -5.3996448799       -8.7912737065
 C        10.4826328797       -4.0569905949      -10.7692918101
 C         8.9242117197       -4.0161861435      -10.7118448794
 O         8.2459807960       -4.1015336107      -11.7175300269
 C         8.2907643209       -3.5329217142       -9.3714111175
 C         7.6258212168       -4.8364920416       -8.6946691982
 C         7.1166035153       -4.8303023822       -7.2602375319
 O         7.5713716747       -5.6418463654       -6.4968824677
 C         5.6257379838       -4.3715585187       -6.8385740525
 C         4.5728258395       -5.3599173996       -7.5115210590
 O         4.8117049138       -6.4244898294       -8.0033127782
 C         3.1042983571       -4.9089832835       -7.3991805124
 C         2.0889312674       -5.5734233476       -8.3985298923
 C         1.0946813720       -4.4949040783       -9.0426846821
 O         1.5021235252       -3.4312757671       -9.4905243738
 C        -0.5140425275       -4.6625219197       -8.9804149028
 C        -0.9826805931       -5.1673978479      -10.4208260481
 O        -1.0184538099       -6.3698262711      -10.5798182144
 C        -1.4373220611       -4.2294642630      -11.5713080878
 C        -2.7915088666       -5.0071067984      -11.9868901441
 C        -3.5879246933       -4.1886785486      -13.0117379871
 O        -3.5746137926       -2.9906319934      -12.9953464976
 C        -4.4566164647       -4.9402730847      -14.1304419738
 C        -5.6363516868       -5.5850059970      -13.2932966718
 O        -5.5554677472       -6.5687843390      -12.5895364075
 C        -6.9715315534       -4.6944539393      -13.4650586674
 C        -7.7576928785       -5.3293012504      -14.6660942514
 C        -8.9290022917       -4.3165963143      -14.9029972031
 O        -8.6981178258       -3.2123465329      -15.3861608241
 C       -10.4214826341       -4.6425691467      -14.5241570949
 C       -10.4083805436       -4.2894897409      -12.8063135311
 O       -10.1664058041       -5.0479051601      -11.9498362507
 C       -10.7079540602       -2.7130666639      -12.5080015115
 C       -10.5412757461       -2.5033681239      -11.0497259996
 C       -10.6550464524       -1.1048074953      -10.5446350169
 O       -11.4430394833       -0.3277293584      -11.1116319383
 C       -10.0006295714       -0.6884423691       -9.2730586488
 C        -9.0946934362        0.6251337448       -9.5867321491
 O        -9.5989766162        1.7317044232       -9.6097715170
 C        -7.6642253687        0.4620767615      -10.0099348127
 C        -7.4007178900        1.2329229513      -11.3424119234
 C        -7.8934281435        0.3688824460      -12.4776666380
 O        -8.0024292686       -0.8623717922      -12.4155388219
 C        -8.0477973587        1.0684618622      -13.8940089409
 C        -8.9451705593        2.3119462163      -13.7492464997
 O        -9.6450983633        2.4801942940      -12.7662599746
 C        -8.9414744615        3.3580379546      -14.8757751468
 C       -10.1999050461        4.1932254120      -15.0630548105
 C       -10.2852199498        5.4916123235      -14.3374292139
 O        -9.3261227082        6.2101296177      -14.0125513755
 C       -11.8551468472        6.0450967010      -14.0489394432
 C       -12.3458202777        5.1749524949      -12.7998450711
 O       -11.5850247962        4.4791760138      -12.1961453071
 C       -13.8105603536        5.4076683564      -12.4819936692
 C       -14.1712178946        5.0866147794      -10.9425854777
 C       -14.3033639620        3.5478935401      -10.5208108057
 O       -13.3829602604        2.8005155898      -10.4288213132
 C       -15.6386239220        3.1441910491       -9.8931005740
 C       -15.9030825149        3.8889510317       -8.5293624829
 O       -15.0470087996        4.5512553539       -7.9850461548
 C       -17.4157237470        3.9400421320       -8.1827248909
 C       -18.1775595694        5.3651901068       -8.4070764310
 C       -19.3921074602        5.3940782392       -9.3566996492
 O       -19.7255901345        4.3924768476      -10.0612255947
 C       -20.1587142778        6.7961993534       -9.4900468684
 C       -19.3111661342        7.8233614999      -10.3613583762
 O       -18.4686731052        7.4025917856      -11.1632824455
 C       -19.4732232547        9.3152091170      -10.2399870100
 C       -21.6005052555        6.6190901459      -10.1703680271
 C       -20.3723540789        7.2521487100       -8.0596475181
 C       -16.7443457295        3.6217613030      -10.8675148191
 C       -15.7111483352        1.6340224139       -9.7660144072
 C       -11.7410630419        7.5210757025      -13.4378755753
 C       -12.7145863726        5.9954728830      -15.3383736631
 C        -6.6417981644        1.5497423206      -14.3099343856
 C        -8.7692094735        0.1049848029      -14.8329276610
 C       -11.0304698294       -0.3379276849       -8.1746657034
 C        -9.0972320190       -1.7602328236       -8.6375963040
 C       -11.3540417875       -3.7238969127      -15.4552531748
 C       -10.7620404147       -6.1041126715      -14.9301040422
 C        -4.7823623651       -3.9424813124      -15.2361316204
 C        -3.6227692105       -6.1087395672      -14.7608030312
 C        -0.8586344778       -5.8599766143       -7.9879958791
 C        -1.1754491585       -3.3866150187       -8.5638790890
 C         5.3028114480       -4.3660884738       -5.3427538065
 C         5.3936640508       -2.9463374280       -7.3720070964
 C        10.9788520757       -2.6265822433      -10.8412212954
 C        10.9534281282       -4.8328186231      -12.0334560667
 C        15.7095780864       -4.5797410674       -6.4722533721
 C        15.2745990355       -7.1284805989       -6.1009820388
 C         9.9650773193       -4.7849745923       -1.6109846416
 C         8.3608075748       -5.2540232244       -3.4249666686
 H        11.6744246861       -2.4246039958       -2.8654602436
 H        10.0382934141       -2.3537122791       -2.1530395801
 H        10.2530787479       -1.4676037518       -3.6490283352
 H        12.1801491596       -6.8623132680       -2.1677929419
 H        12.4773897977       -5.2300286500       -2.4396079650
 H        12.8982475272       -7.3439611843       -4.4899482912
 H        14.0883047040       -6.9244294398       -3.4071858295
 H        13.9946366772       -3.8302008417       -8.0928347194
 H        12.5014912097       -3.6288066623       -7.4897309474
 H        13.0920654319       -5.5630630097       -9.7978069169
 H        13.0566444902       -3.9185165952      -10.1066538761
 H         7.5445312794       -2.8358342998       -9.7512099876
 H         8.9667323905       -3.0256589410       -8.6994514373
 H         8.1247601556       -5.8445750692       -8.8688352162
 H         6.7784765163       -4.9251661566       -9.3682164163
 H         3.0840632714       -3.8462208825       -7.4850517940
 H         2.7284091037       -5.1241321774       -6.3817681998
 H         1.4531326145       -6.3273535198       -7.9090652317
 H         2.6989464342       -5.9795692650       -9.1932500888
 H        -0.7487719081       -4.3102686776      -12.5002893790
 H        -1.6381665188       -3.2389987974      -11.4171740382
 H        -3.4055525353       -5.2782345514      -11.1760686653
 H        -2.4896967516       -5.9492389659      -12.5712196778
 H        -6.8353441492       -3.5708272323      -13.5328593617
 H        -7.5296748944       -4.8213131349      -12.4583171426
 H        -8.1522895674       -6.2917148304      -14.3887153315
 H        -7.1973363121       -5.4582876173      -15.5221434345
 H       -11.7582351556       -2.6018053374      -12.8326040194
 H       -10.1525213757       -2.1409086189      -13.2301027016
 H        -9.5576053355       -2.8265577646      -10.8236900306
 H       -11.2888065489       -3.2088636934      -10.5614030452
 H        -7.3157638896       -0.5238120710      -10.1671754427
 H        -6.9698710208        0.8998023917       -9.2870462579
 H        -6.3795722442        1.2479436658      -11.4780218769
 H        -7.8813033547        2.2512551789      -11.2934826442
 H        -8.7301936128        2.8399414017      -15.8230179682
 H        -8.0371450847        4.0547798465      -14.7235264370
 H       -11.0282254223        3.5037177114      -14.9799195086
 H       -10.2692258043        4.4983897099      -16.1440992870
 H       -14.4738605464        4.6936545755      -13.0788236750
 H       -14.2937865675        6.3959759197      -12.6523728750
 H       -15.1877121914        5.4561667935      -10.7701285936
 H       -13.4667956379        5.5840948070      -10.2386834542
 H       -17.4321219865        3.6143288067       -7.1223507036
 H       -17.8898911610        3.1155946579       -8.7559154662
 H       -17.4815298821        6.1796719668       -8.6529974806
 H       -18.7089052580        5.5642152201       -7.4650356695
 H       -19.2142633049        9.6009739141       -9.1498412213
 H       -20.5106378291        9.5045401792      -10.4746529809
 H       -18.8826647346        9.8065067366      -11.0419737564
 H       -21.8433376927        7.6422510376      -10.5526605183
 H       -22.4863167357        6.3992672962       -9.5187737613
 H       -21.5758860394        6.0566721199      -11.0494189746
 H       -19.4493066749        7.6566707881       -7.7721267155
 H       -20.7673497034        6.3836381840       -7.4332533018
 H       -21.0757405345        7.9552596866       -8.0158591153
 H       -17.6171780149        3.0292497440      -10.8938375886
 H       -16.4194763704        3.5319738237      -11.8710337573
 H       -17.0994456181        4.6128932331      -10.7229997433
 H       -16.6317072825        1.2655429205      -10.1781138849
 H       -15.5432903449        1.2789247790       -8.7414245354
 H       -14.9237511698        1.3396586359      -10.4477222814
 H       -10.8298721080        7.9588772712      -13.8278375648
 H       -11.7892306931        7.3624986348      -12.3501573106
 H       -12.4963435259        8.2454413082      -13.7880018294
 H       -12.6715806859        5.0118833769      -15.7656091406
 H       -12.5859457068        6.8692248393      -15.9513351316
 H       -13.7739565765        6.1533339993      -15.0282992598
 H        -5.9841939838        0.8118037554      -14.4936359464
 H        -6.0934948294        2.0156842114      -13.3936598800
 H        -6.5237402150        2.3337029908      -15.0436992034
 H        -8.2392037039       -0.8776089436      -14.8330670553
 H        -8.9839859644        0.4031494521      -15.9136451936
 H        -9.7532103079        0.0262916281      -14.4460268123
 H       -11.5367308915        0.5639156949       -8.3593137910
 H       -10.5143135134       -0.2063231173       -7.2046360470
 H       -11.8408844718       -1.0437659223       -7.9234619833
 H        -9.6716710374       -2.5590187222       -8.1801040246
 H        -8.4339426550       -1.1396225197       -7.9111792805
 H        -8.2903883267       -2.0947239703       -9.3114046613
 H       -12.3760184555       -3.9670228243      -15.3253703536
 H       -11.1108756211       -3.7955236739      -16.5546188827
 H       -11.1578730416       -2.6561108396      -15.2276938064
 H       -11.8510365392       -6.2201117704      -15.1567957066
 H       -10.4441939539       -6.8322101156      -14.1427812032
 H       -10.2515204503       -6.3189780696      -15.8706119670
 H        -5.2657829352       -4.4631335193      -16.0661758310
 H        -3.9156055710       -3.5893083110      -15.6910142044
 H        -5.4558330708       -3.1865772342      -14.8758079770
 H        -2.6859761842       -5.6534339167      -14.9847698360
 H        -4.0229508173       -6.5309763142      -15.7843254662
 H        -3.3290152817       -6.9047947231      -14.0531855264
 H        -0.3006699510       -6.6810848261       -8.3281643338
 H        -1.9042336837       -6.1168063943       -7.9850185657
 H        -0.4003654850       -5.6394218214       -7.0046776307
 H        -1.0203103771       -2.6347796046       -9.3651179123
 H        -0.7367322967       -3.0838922192       -7.6126720254
 H        -2.2805251181       -3.4818247043       -8.4696518002
 H         5.2502682590       -5.3981467992       -4.9639152514
 H         4.3238098860       -3.8766852933       -5.0334576263
 H         5.9020340579       -3.7132721928       -4.7252488196
 H         5.7612185368       -2.2290297065       -6.7009010730
 H         4.3166809225       -2.5931505941       -7.4077629571
 H         5.9143018308       -2.8001814859       -8.3114784296
 H        10.2724630367       -1.9661559087      -11.3649727167
 H        11.9528018785       -2.4712102880      -11.4345983864
 H        11.1119935864       -2.0969133053       -9.9044495040
 H         9.9898296037       -5.0759265487      -12.5590545059
 H        11.4815499647       -5.7383588608      -11.6880811505
 H        11.4769269884       -4.0976624817      -12.6174965323
 H        15.5651280217       -4.4196903045       -7.5326895329
 H        16.7710299407       -4.8289283185       -6.2078454186
 H        15.5007122283       -3.5909286635       -6.0414959447
 H        15.6175634772       -7.3810604086       -5.1059021848
 H        16.2502046090       -7.0484835747       -6.6231991736
 H        14.5635170219       -7.8645292653       -6.4689780820
 H         9.2445256236       -4.1148291236       -1.1502267403
 H        11.0327760869       -4.5456241487       -1.4136823673
 H         9.8951953948       -5.7217271339       -1.1092579255
 H         8.1713288297       -6.2926254906       -3.3363715915
 H         8.0194339945       -4.8894878047       -4.4049036944
 H         7.6318971558       -4.7348721546       -2.7368300336
 Na        9.9279530324       -5.8513241813       -6.5769690220
 Na      -11.3746004318        1.9152056548      -11.2836452523
