232

 C       -17.6530489349       -5.8552019258       -3.0770696434
 C       -17.9093231110       -7.3288303766       -2.8641765072
 O       -17.0842377377       -8.1652039938       -3.2337234470
 C       -19.2176372044       -7.9319442441       -2.1709444786
 C       -18.6492807506       -8.6470682174       -0.9081853825
 O       -18.3621028682       -9.8827588263       -0.9098297789
 C       -18.6040304039       -7.9575070869        0.4258241604
 C       -17.3434216648       -8.2548626336        1.2220320892
 C       -16.1599187340       -7.4241755697        0.8065018280
 O       -16.1730973620       -6.3590021357        0.2535202801
 C       -14.7256126159       -8.0694836372        1.0467828088
 C       -14.6538082273       -8.9308074547       -0.3001947915
 O       -15.5715550752       -9.7549703973       -0.3985131877
 C       -13.8150970302       -8.6521685664       -1.5612092961
 C       -13.1607955668       -9.9819164058       -2.0600155410
 C       -13.6356502880      -10.5464931735       -3.3816187979
 O       -14.7971153936      -10.7786314436       -3.6984045748
 C       -12.5324890459      -10.7794831420       -4.5914246737
 C       -12.5918812556       -9.4257464259       -5.5103710677
 O       -12.5860306978       -8.3702365051       -4.8789990758
 C       -12.4504240239       -9.5076909720       -6.9795140978
 C       -12.7866299941       -8.1866358679       -7.5844070647
 C       -12.5783911382       -8.0501511391       -9.0853822651
 O       -12.1442097612       -8.9076580893       -9.7821107830
 C       -12.8878192981       -6.6148968407       -9.7508101357
 C       -11.5706655664       -5.7636895606       -9.4383797636
 O       -10.9845615957       -5.9113504421       -8.3594499017
 C       -11.1358522802       -4.5463913205      -10.3130022531
 C       -10.1505674180       -3.6126556189       -9.4224541835
 C       -10.4717582320       -2.1783338734       -9.7294419924
 O       -11.6394428126       -1.8277578666       -9.9398866206
 C        -9.2803514421       -1.0848380485       -9.8117593480
 C        -8.3374291867       -1.6178459302      -10.8199680844
 O        -8.4189260793       -2.7061129620      -11.4133480005
 C        -7.1288888070       -0.6810250340      -11.2485402272
 C        -6.0726647742       -1.4131425851      -12.0199850343
 C        -4.8415445179       -0.6668842862      -12.3643178334
 O        -4.6765070930        0.4648280543      -11.9090500053
 C        -3.5882033757       -1.3967567271      -13.0447515297
 C        -2.4242759737       -1.7145512128      -11.9630252256
 O        -2.6734752735       -2.4063910138      -11.0008651755
 C        -1.0031022298       -1.0266211127      -12.1549554135
 C        -0.1333963260       -1.5071847708      -10.9806993412
 C        -0.1826859910       -0.5312404512       -9.8563704032
 O        -0.8123560410        0.5593452236       -9.9394547972
 C         0.8867366475       -0.7863116464       -8.7766195441
 C         2.1303882329       -0.1607704650       -9.5077326763
 O         2.8614828888       -0.8201681516      -10.3125198562
 C         2.4161009649        1.4555775871       -9.4877671595
 C         4.0082247402        1.7421969100       -9.6241768131
 C         4.2632530769        3.2036542344       -9.1878113689
 O         3.4670245725        3.9356138318       -8.6956070578
 C         5.6591851009        3.8394545002       -9.6678932643
 C         5.4124331541        4.5178379954      -11.0327516538
 O         5.8481500014        3.9987946000      -12.0292664597
 C         4.4487645266        5.7677233202      -11.0316825485
 C         4.9627797996        7.1246104997      -11.5569803209
 C         4.8773863720        7.1710788867      -13.1667332647
 O         4.6368286238        6.1527961107      -13.7668770367
 C         5.1033716932        8.4242512441      -14.0336487434
 C         6.0669989561        8.0143790861      -15.2748795639
 O         5.8596328042        8.4244475962      -16.4341134455
 C         7.4139017809        7.1990088150      -14.8695370224
 C         8.0880287768        6.3573013364      -15.9744987685
 C         7.3009966535        5.2936600052      -16.7196462779
 O         6.5208716632        4.5094279222      -16.1895032770
 C         7.7152616645        4.9549168201      -18.2059907349
 C         9.1201995813        4.2475722246      -18.1324198197
 O         9.6407109606        4.1162890445      -17.0275380252
 C         9.8877360656        3.7539980084      -19.3804232216
 C        10.7648754220        2.6420565722      -18.9162709722
 C        10.1477942571        1.2887691149      -18.8700413851
 O         9.2167913116        1.0254581248      -19.5722040496
 C        10.7944013621        0.2641556739      -18.0202584421
 C        10.2275537774        0.5931727376      -16.5752131290
 O        10.9039094547        0.4555938890      -15.6243779137
 C         8.7510365587        1.0596632017      -16.5435456960
 C         7.7266618111        0.1386183737      -15.8072449077
 C         6.7638035750        1.0818475335      -15.1165895735
 O         6.8777802949        2.2366662773      -14.7957604100
 C         5.3716643150        0.3160297346      -14.5380495826
 C         4.2880388675        1.0912199766      -15.4591597690
 O         3.8684038049        2.2492243915      -15.1794534487
 C         3.7501725969        0.3166577356      -16.7129763839
 C         5.3665919922       -1.2581390074      -14.5449320222
 C         5.1582422211        0.8230611410      -13.1061938054
 C        10.3029553793       -1.1568209288      -18.5542762735
 C        12.3626813301        0.2772186304      -18.1317226716
 C         6.7009937098        3.9285209183      -18.8335044114
 C         7.9048690102        6.2265900392      -19.1243621759
 C         3.7998530254        8.8289300547      -14.6708917441
 C         5.7105550709        9.6755539071      -13.1744430686
 C         5.9694528290        4.9502451916       -8.4361697899
 C         6.7717503180        2.7775422318       -9.6639447041
 C         0.4097765437       -0.0950332872       -7.4773898209
 C         1.1677588875       -2.3266205352       -8.5165041428
 C        -4.0899270984       -2.7550290156      -13.7181102604
 C        -2.9063524617       -0.5390976859      -14.1269356920
 C        -9.8095132014        0.2791568407      -10.0845596305
 C        -8.5416439254       -1.1580610280       -8.3922638475
 C       -13.3144181017       -6.7256016449      -11.1886094191
 C       -13.9384593491       -5.8016300054       -8.9544023828
 C       -11.0586726788      -10.9820399797       -4.3121141881
 C       -12.9977323926      -11.9418000733       -5.4462927362
 C       -13.6322597060       -6.9863512255        1.0969889163
 C       -14.6491823578       -8.9116670749        2.2977707166
 C       -20.2072354123       -6.8393292189       -1.7241737285
 C       -19.9355336564       -8.9929158638       -3.1279771703
 H       -17.1205829127       -5.5124581163       -2.1769892062
 H       -18.5798798159       -5.3296650610       -3.2552339590
 H       -17.0324235236       -5.7489791292       -3.9205494118
 H       -19.4702950878       -8.4064556890        0.8975606785
 H       -18.7457345761       -6.8843126305        0.4766464397
 H       -17.1661775911       -9.3135837427        1.2355096867
 H       -17.5740209305       -8.0547867219        2.2604616821
 H       -13.0733187782       -7.8682851255       -1.4143753961
 H       -14.4637686164       -8.2611693807       -2.3703955705
 H       -13.4262893163      -10.7668349657       -1.3401707136
 H       -12.1401381002       -9.9278329722       -2.0439021891
 H       -13.0806540282      -10.2430951010       -7.4863630404
 H       -11.4086590028       -9.7672477965       -7.0850470544
 H       -12.2682814122       -7.4060030748       -7.0001369845
 H       -13.8965559974       -8.0687021230       -7.4404960894
 H       -11.9919372406       -3.8816127848      -10.3760611227
 H       -10.8187358994       -4.9452408581      -11.2921403886
 H        -9.1447312068       -3.9493854998       -9.7138408888
 H       -10.4239763111       -3.8233663392       -8.3546770723
 H        -6.4815452407       -0.0827294037      -10.4829716638
 H        -7.5452541973        0.1277032876      -11.8431787816
 H        -6.5251967695       -1.8986663359      -12.9323785084
 H        -5.6995711012       -2.1354411573      -11.3070396633
 H        -1.2874180515        0.0030076476      -12.0413787593
 H        -0.6432550187       -1.2633701946      -13.1246170089
 H         0.8745941944       -1.5228416509      -11.3065360248
 H        -0.3336298366       -2.5850928845      -10.7331187586
 H         2.2386368016        2.0171904086       -8.5577599812
 H         1.8519335639        1.7737707313      -10.2904584439
 H         4.2473651127        1.7427192459      -10.6757278032
 H         4.4987633937        0.9822157862       -8.9815959211
 H         3.9926645256        5.8570133757      -10.0928139118
 H         3.7150783639        5.3276249951      -11.6378017074
 H         6.0170629939        7.1373395457      -11.2163001919
 H         4.3919636098        7.9651241571      -11.1100821110
 H         7.2288430707        6.5855513535      -14.0445088798
 H         8.1895009420        7.9014134324      -14.5248205215
 H         8.7898223038        5.7407072447      -15.5477382738
 H         8.7589908553        7.0771981512      -16.6637276465
 H        10.3727214073        4.4925245054      -19.9267729258
 H         9.1546911985        3.3715007199      -20.1227623575
 H        11.1439581078        2.9471278078      -17.9275671719
 H        11.5391014137        2.5571880565      -19.6150310346
 H         8.3663596187        1.2046165030      -17.5826361125
 H         8.7677485272        2.0233563287      -16.1299327528
 H         8.1975837473       -0.6604138739      -15.1769630408
 H         7.2118374356       -0.4534017047      -16.5476268493
 H         4.4851547907        0.2549004052      -17.4423661611
 H         2.8511176345        0.8153715822      -17.2173443299
 H         3.4624556834       -0.6511812009      -16.2138433455
 H         4.4383650956       -1.5574211805      -14.1760949906
 H         6.1809614079       -1.6025639619      -13.9096871686
 H         5.2991889143       -1.7212318048      -15.4755051370
 H         4.1793320626        0.5881145769      -12.8482795389
 H         5.1994869274        1.9549897364      -13.0792983158
 H         5.7058687868        0.3336751355      -12.2958633121
 H        10.6859360587       -1.8496280686      -17.8652537715
 H        10.6702763687       -1.1535826587      -19.5523974105
 H         9.2480532267       -1.2535765210      -18.6493864599
 H        12.7215758529        0.3947583353      -19.1640810694
 H        12.8822994151       -0.5495839479      -17.6397426613
 H        12.7129094330        1.1330258928      -17.5501960113
 H         5.7264132290        4.3656201519      -18.9981785772
 H         6.5316474432        3.0623864080      -18.1729608476
 H         7.2303970168        3.6149549527      -19.7290244191
 H         8.2653294902        6.9741491904      -18.4926945891
 H         6.8705235334        6.4885349756      -19.4447988665
 H         8.5201562362        6.0735868796      -19.9622517047
 H         3.7026133691        9.8251467409      -15.1183471882
 H         3.0000124803        8.7367833614      -13.9875280491
 H         3.6805405747        8.1636295257      -15.5482708642
 H         6.2065517735       10.3297198737      -13.9294980021
 H         6.5545429283        9.3727070957      -12.4590535730
 H         5.0616659573       10.2394924578      -12.4987087152
 H         6.3622331808        4.2510090194       -7.7497604251
 H         4.9313465610        5.3291790556       -8.1655117371
 H         6.6931315262        5.6284960131       -8.7851029437
 H         7.7637676725        3.1784622521       -9.4953808571
 H         6.9060532051        2.3816351329      -10.6466745889
 H         6.6183233198        1.9969503113       -8.9091107644
 H         0.1530763046        0.9454790700       -7.5253048462
 H         1.2532033745       -0.2415361611       -6.7349719282
 H        -0.3871923066       -0.7247918757       -7.0284683251
 H         0.2812168529       -2.9565507625       -8.6310228679
 H         1.7537833010       -2.3213144060       -7.6026236296
 H         1.9080930047       -2.7129200026       -9.2881648713
 H        -4.3554957796       -3.4706702214      -12.9478675245
 H        -3.3349263478       -3.3050166605      -14.3292107446
 H        -4.9032996573       -2.5177114258      -14.3544452635
 H        -1.9798303578       -0.9763723173      -14.5996481022
 H        -2.7933417096        0.4746941857      -13.8260127690
 H        -3.5388229203       -0.4061060606      -14.9456615500
 H       -10.3602441727        0.6048853847       -9.1822191857
 H       -10.4098112142        0.3070634353      -10.9443852722
 H        -9.0808592949        1.0576429334      -10.1980454767
 H        -9.1637285649       -0.8523831056       -7.4987829687
 H        -7.7354098308       -0.4113357306       -8.3908455763
 H        -8.0979362926       -2.1350314654       -8.2684360549
 H       -13.1269983457       -5.8548157264      -11.8036225816
 H       -14.3826480497       -6.9348934966      -11.2826229602
 H       -12.7267941162       -7.5480652029      -11.5195844403
 H       -14.9207437643       -6.1321615313       -8.9110793212
 H       -14.0078996599       -4.9242856870       -9.5615208430
 H       -13.5629654723       -5.6334975333       -7.9079736165
 H       -10.5146811170      -10.2103954034       -3.7448018294
 H       -10.5396651652      -11.0770398316       -5.2266115584
 H       -10.7778663239      -11.8672613652       -3.7739265875
 H       -14.0547264096      -12.0366100949       -5.5694355220
 H       -12.6648668951      -12.8354594947       -4.9145286132
 H       -12.4388357225      -12.0133040776       -6.4154396803
 H       -13.8813684965       -6.3102624570        0.2758259290
 H       -12.5886838697       -7.3151472290        1.0170031989
 H       -13.6531814447       -6.3631317198        2.0054102500
 H       -15.6145058188       -9.4857041164        2.5053009178
 H       -14.5882025120       -8.3861636672        3.2850523384
 H       -13.8360589996       -9.5511458451        2.3730395102
 H       -19.6688638098       -6.0682067549       -1.2600351074
 H       -21.0392871159       -7.3146706184       -1.1722001222
 H       -20.6445941775       -6.3744986772       -2.7003488617
 H       -20.5985544697       -9.5573702810       -2.4309952257
 H       -19.2779721957       -9.6017136020       -3.7116339498
 H       -20.5826902340       -8.4758465795       -3.8005506787
 Na      -16.7039969523      -10.3763161200       -2.3416078047
 Na        5.2664161108        4.1433389981      -14.3797712761
