232

 C        10.6214751096       -2.4967982301       -3.3200260526
 C        10.1822515845       -3.8040096722       -3.9348879648
 O        10.2130609140       -3.9825595908       -5.1572100574
 C         9.7835647038       -5.0990179051       -3.1062981975
 C        10.8330734989       -6.1899416165       -3.5107724671
 O        10.6173083537       -6.9703129308       -4.4549798409
 C        12.1878724389       -6.0794940063       -2.8761441599
 C        13.2564646253       -6.5108052907       -3.8786759895
 C        13.6933642071       -5.3476271040       -4.7877821917
 O        13.4547961291       -4.1298024331       -4.5958048710
 C        14.5019850844       -5.6871353685       -6.1507966847
 C        13.2850928096       -5.3973151476       -7.1074287046
 O        12.4450465941       -6.3102639703       -7.0472306766
 C        13.1162614449       -4.1643006330       -7.8691777667
 C        12.6991364208       -4.5269830251       -9.3245954623
 C        11.2175264373       -4.6512957145       -9.5517538295
 O        10.5465890423       -5.5059638647       -8.9097295710
 C        10.5592737685       -3.9689039268      -10.7473036204
 C         8.9287292991       -4.0542062240      -10.5482789979
 O         8.2573811469       -4.3323327508      -11.5252482284
 C         8.3409438570       -3.8821065435       -9.0859098542
 C         7.1496588242       -4.8697350880       -8.9701933428
 C         6.9229101054       -4.8492966399       -7.5010596969
 O         7.8097271915       -5.1289884376       -6.7163156932
 C         5.5122027112       -4.2531599269       -7.0287163013
 C         4.4493120276       -5.1201294592       -7.7687328933
 O         4.6713218047       -5.8790730192       -8.6996583268
 C         2.9851174710       -4.9893308116       -7.2870356326
 C         2.0746605347       -5.6290787439       -8.4135651571
 C         0.9789841861       -4.6021976160       -8.9770654071
 O         1.3984242692       -3.4812782518       -9.2085541472
 C        -0.5142786543       -4.9537546643       -8.9206437054
 C        -0.8321086291       -5.3182927626      -10.4036771010
 O        -0.7215749174       -6.4231673221      -10.8377535741
 C        -1.4068270844       -4.2762157883      -11.4691656626
 C        -2.9426761878       -4.5673826770      -11.6852611422
 C        -3.5992961997       -3.9283334259      -12.9682054976
 O        -3.7653479431       -2.7317474246      -12.9599028120
 C        -4.3048672834       -4.9251178803      -14.0013113549
 C        -5.6104231046       -5.4845760445      -13.2771732978
 O        -5.4192936785       -6.4789922211      -12.6178704208
 C        -6.9974109113       -4.7928836870      -13.4365200000
 C        -7.8260281339       -5.2888153080      -14.6209581208
 C        -8.9747034726       -4.3667239642      -14.9439706727
 O        -8.7256786763       -3.2810595386      -15.4799323388
 C       -10.4255283031       -4.7503586991      -14.4218226208
 C       -10.3527864896       -4.4596985533      -12.9209601034
 O       -10.2011318573       -5.3430569606      -12.1535490791
 C       -10.4583515374       -3.0074693930      -12.4558493286
 C       -10.4065344254       -2.7632307505      -10.9325634776
 C       -10.5954829918       -1.1705600216      -10.6406324711
 O       -11.0634609956       -0.3742901459      -11.4549012049
 C        -9.9220719689       -0.6429431403       -9.3223721577
 C        -9.1713169111        0.6912533499       -9.6918875566
 O        -9.7643397753        1.7910880984       -9.7059796621
 C        -7.6712847186        0.7074425280       -9.9110002353
 C        -7.3378079106        1.3951393821      -11.2417220946
 C        -7.7625651850        0.6299000405      -12.5051659706
 O        -7.8233260092       -0.5954943660      -12.4014263456
 C        -7.9675110220        1.2272349394      -14.0330972932
 C        -9.0361492010        2.4137539368      -13.9253009515
 O       -10.0097988538        2.3888816779      -13.1941355772
 C        -8.9713080346        3.5138443340      -14.9570546887
 C       -10.3243954389        4.1538203986      -15.1279474643
 C       -10.3567873262        5.5580547465      -14.5293905056
 O        -9.4663014033        6.3776589062      -14.5847181357
 C       -11.7494541330        6.0133823392      -13.9217985194
 C       -12.1484445788        5.1021349203      -12.7363215358
 O       -11.2820875337        4.5915487047      -12.0977664259
 C       -13.6124168449        5.0832042568      -12.3770722971
 C       -13.9260447490        4.8396898223      -10.8122550662
 C       -14.3649026103        3.4378788591      -10.5440976653
 O       -13.7564970118        2.4920413866      -10.9644404630
 C       -15.8216652424        3.1849396892       -9.9473856843
 C       -16.0774117287        4.0506436017       -8.6216699743
 O       -15.0806948429        4.4354970376       -8.0265918913
 C       -17.5004397150        3.9978200231       -7.9279725614
 C       -18.0934746884        5.4476815389       -7.8812688662
 C       -19.1935693427        5.5240504908       -8.9158030781
 O       -19.4870160197        4.4601679587       -9.4818755946
 C       -20.2050363230        6.7890008016       -9.1940026601
 C       -19.3945481549        7.8107310733      -10.2048339109
 O       -18.8297993696        7.3189698978      -11.2095335517
 C       -19.2445474077        9.2987336642       -9.8989776286
 C       -21.4067662609        6.3180842570      -10.0565095958
 C       -20.5796847990        7.5031873272       -7.8096378958
 C       -16.8012862029        3.2065422817      -11.1772867981
 C       -15.8410433404        1.6852092755       -9.4374776751
 C       -11.4016171725        7.4449922697      -13.3540613471
 C       -12.7805263230        6.1061425180      -15.0630523855
 C        -6.6338371050        1.6334653689      -14.5410941563
 C        -8.6501981826        0.2441741797      -15.0490038635
 C       -11.1453923886       -0.2480600900       -8.4761315885
 C        -8.9979577398       -1.6428995172       -8.5850369161
 C       -11.5005573467       -4.0301575774      -15.2331657588
 C       -10.6965777456       -6.2716870408      -14.4531297925
 C        -4.6532743590       -4.3431483706      -15.3603634003
 C        -3.4646264275       -6.1082522967      -14.2897160665
 C        -0.8944448980       -6.1605482710       -7.9874274913
 C        -1.3131221483       -3.6847732359       -8.5453268314
 C         5.5364073386       -4.3850735902       -5.4948059021
 C         5.4891155304       -2.7663190147       -7.4101759907
 C        10.9411154873       -2.4004547453      -10.7673771622
 C        10.8838688451       -4.6533706742      -12.1561087279
 C        15.7823144982       -4.7610881578       -6.3405333311
 C        14.8511166903       -7.2144641449       -6.3509774759
 C         9.6996061442       -4.8482835918       -1.5867044331
 C         8.4334490946       -5.5996412517       -3.5547871101
 H        11.5999922760       -2.6577209561       -2.8094551307
 H        10.0054097207       -2.3469149492       -2.4955429434
 H        10.6039535105       -1.6303050397       -3.9874193109
 H        12.2977819848       -6.6440011793       -1.9897516858
 H        12.4257973038       -5.0911104709       -2.4216324480
 H        12.7593747136       -7.3799532402       -4.4366752525
 H        14.0990178796       -7.0075395106       -3.4280801522
 H        13.9339772987       -3.3966715779       -7.8668106768
 H        12.3842508687       -3.5231104088       -7.3572904809
 H        13.1422274982       -5.4641867164       -9.6964101457
 H        13.0437438440       -3.8316470201      -10.0113523248
 H         7.9934991993       -2.8330309443       -8.9778818971
 H         9.0590690080       -4.1671547449       -8.2314049989
 H         7.2021918234       -5.8577149925       -9.4101827384
 H         6.3227028394       -4.4475007568       -9.5504478459
 H         2.7280909176       -3.9329813029       -7.1383751872
 H         2.8832947928       -5.5334894114       -6.3233466333
 H         1.4833836936       -6.4592399626       -7.9797662712
 H         2.7162656232       -5.9240719722       -9.2416270021
 H        -0.7795833635       -4.2517829829      -12.4498665678
 H        -1.3463024191       -3.3610370562      -10.9833946845
 H        -3.4125046779       -4.0949689685      -10.8471371332
 H        -3.1485853201       -5.6293714126      -11.6087788661
 H        -6.8560996755       -3.7696760894      -13.4973534111
 H        -7.5374977378       -4.8539430592      -12.5279443119
 H        -8.1288582357       -6.3860861756      -14.4865173821
 H        -7.2212824743       -5.3045408423      -15.5348420754
 H       -11.4680335048       -2.8061152803      -12.8686015333
 H        -9.8665029451       -2.3541770196      -13.0746092236
 H        -9.4292690012       -3.0151355712      -10.6142167414
 H       -11.0926260097       -3.3771670505      -10.3074132071
 H        -7.1158029973       -0.2371979766       -9.8856681655
 H        -7.2747070274        1.3166870893       -9.0608450785
 H        -6.2935595447        1.6519772146      -11.4140268094
 H        -8.0119022033        2.2716335683      -11.1736948759
 H        -8.5716726884        3.1109083843      -15.9548207922
 H        -8.3121396270        4.3330998544      -14.7366663272
 H       -11.0967647797        3.5488342370      -14.6147959282
 H       -10.6411762508        4.0408176292      -16.1600427089
 H       -14.2156183503        4.4172343339      -12.9317525465
 H       -14.0438743819        6.1011511763      -12.5255655023
 H       -14.6753774893        5.5130927449      -10.3930380927
 H       -12.9440467035        5.0310764702      -10.2994045440
 H       -17.4746881047        3.4779353777       -6.9412598027
 H       -18.0489436505        3.4511902045       -8.6802785302
 H       -17.4062447611        6.2618351531       -8.1646918166
 H       -18.5058098668        5.6264013680       -6.9258736138
 H       -18.7499728152        9.2359670666       -8.9324482907
 H       -20.2020149129        9.6984185005       -9.7939515899
 H       -18.7829496540        9.8592971822      -10.6802161540
 H       -22.3390990632        6.8701095479       -9.9402487126
 H       -21.5903198876        5.2609569208       -9.8445342926
 H       -21.1953494204        6.3900641342      -11.1142483650
 H       -19.6596320542        7.5678974074       -7.2172700278
 H       -21.3288127952        6.7570499019       -7.2881560156
 H       -21.1009762855        8.3868450292       -7.9696523827
 H       -17.8834378607        2.9449078767      -11.1227524705
 H       -16.3975138792        2.3991379100      -11.8405958927
 H       -16.8458470020        4.2065816060      -11.6753529807
 H       -16.6503066908        1.6844145434       -8.6685812295
 H       -14.8786640403        1.4295926711       -9.0465699704
 H       -16.2088830121        1.0113926312      -10.2129602287
 H       -11.0493606161        8.1166327354      -14.1381415708
 H       -10.6484038835        7.2727418439      -12.5717306204
 H       -12.3002225623        7.9740327929      -13.0924634428
 H       -13.2206113620        5.1160264946      -15.2855660764
 H       -12.2714682896        6.4790095274      -15.9176288339
 H       -13.6295318828        6.7950922178      -14.8823665107
 H        -5.7668248399        1.1977915147      -14.1312550861
 H        -6.4315109411        2.8244868402      -14.3820977921
 H        -6.5959536563        1.4041569842      -15.6462188970
 H        -8.0226756595       -0.6184794002      -15.2622356342
 H        -8.7661011678        0.8118068985      -15.9826502630
 H        -9.6087040575       -0.0752440331      -14.7430974384
 H       -11.8702850451        0.2874107004       -9.0414713033
 H       -11.0171872236        0.3072363436       -7.5904750344
 H       -11.7144255560       -1.1833889530       -8.1120210977
 H        -9.6547882439       -2.4173800232       -8.3730186483
 H        -8.6125127958       -1.3023669030       -7.5678029121
 H        -8.1815284623       -1.9709682904       -9.1919562839
 H       -12.2455703991       -3.7429732514      -14.5878028186
 H       -11.8702604404       -4.6233111924      -16.0997644617
 H       -11.0942372810       -3.1145286370      -15.6735883595
 H       -11.7154902943       -6.3773951434      -14.0350247858
 H       -10.0861542777       -6.7828636021      -13.7584572309
 H       -10.7177209864       -6.6512732714      -15.4526129174
 H        -5.1602497061       -5.1497989071      -15.9186441777
 H        -3.7838176624       -4.0962095045      -16.0190375173
 H        -5.3910846998       -3.5204424117      -15.3570537099
 H        -2.4678313283       -5.9216857508      -14.2329124362
 H        -3.8476964603       -6.5679261923      -15.2587968014
 H        -3.5251111145       -6.8962151696      -13.5303762537
 H        -0.5040845180       -7.0703533174       -8.5130918929
 H        -2.0042700466       -6.2431338994       -7.9855010853
 H        -0.5039445107       -6.0151513602       -6.9749093529
 H        -0.9748301696       -2.7917875979       -9.0331821016
 H        -1.5671180672       -3.6369908430       -7.5009072472
 H        -2.2267364683       -3.8108951630       -9.0528356068
 H         5.5508160288       -5.3998336585       -5.0817803939
 H         4.8536534891       -3.8306190955       -4.8671933998
 H         6.4432879784       -3.9494514666       -5.2391157731
 H         6.2960615415       -2.1459829459       -7.0935036175
 H         4.5132413563       -2.2406057204       -7.0373069889
 H         5.3413469056       -2.8034695774       -8.5069700102
 H        11.1603582213       -2.0400063879      -11.7214598417
 H        11.9045350792       -2.1669475221      -10.3156057575
 H        10.2325299845       -1.7605699455      -10.2749026981
 H        10.6471132851       -4.0100413863      -12.9459608864
 H        10.2788522106       -5.5483710300      -12.0965739686
 H        11.9200186610       -4.7853351041      -12.1295634120
 H        16.5483821564       -5.0877651761       -7.0729332374
 H        16.2184155795       -4.9874034482       -5.3658509466
 H        15.6411684365       -3.7304419819       -6.4603543246
 H        15.7264780096       -7.5089974907       -5.7844071768
 H        14.8935579407       -7.4735513728       -7.4349850725
 H        13.9727139767       -7.7026223536       -5.9839551114
 H         8.9071237197       -4.2038078061       -1.2383027884
 H        10.6726232755       -4.3262993720       -1.3437115199
 H         9.5975007942       -5.7573433198       -0.9914953922
 H         8.1980975784       -6.5530346881       -3.1811620168
 H         8.3363693819       -5.6018966840       -4.6432459241
 H         7.6032186470       -4.9642556252       -3.1966742349
 Na       10.3484594435       -5.6989247012       -6.5096555209
 Na      -11.3392165744        2.2569238598      -11.1669701902
