232

 C        10.4980807620       -2.5618230064       -3.1979414071
 C        10.1604080441       -3.8820578024       -3.9934334000
 O        10.2512518245       -3.9302255920       -5.1948199342
 C         9.7684923448       -5.1285031984       -3.0894533718
 C        10.9394590327       -6.1779281721       -3.4233665489
 O        10.8034962795       -6.8502783010       -4.4106408355
 C        12.3570511159       -6.1343442189       -2.6585240420
 C        13.5202158388       -6.5380351760       -3.6855616346
 C        13.6219245943       -5.4614956266       -4.7842000707
 O        13.1869296586       -4.3700028710       -4.6191391086
 C        14.4541135615       -5.7770180784       -6.1580208393
 C        13.2616770470       -5.5679502921       -7.1347132367
 O        12.3167290978       -6.3164010983       -7.1552538007
 C        13.2451571213       -4.2104915360       -8.0002751067
 C        12.8777682534       -4.3420046496       -9.4704440447
 C        11.3134647381       -4.6138042384       -9.6930866027
 O        10.7365713224       -5.4776215205       -9.1195383557
 C        10.5932873368       -3.8387172238      -10.8321878965
 C         8.9949822728       -4.0753748458      -10.7533371656
 O         8.3354180855       -4.4537014682      -11.6927577854
 C         8.3654524275       -3.5880547549       -9.4030717401
 C         7.4060426296       -4.7067446913       -8.9652464172
 C         6.9703724547       -4.6553943536       -7.5239769792
 O         7.8428193431       -4.9628375917       -6.6839552419
 C         5.5285556711       -4.2914583890       -7.0446451040
 C         4.3957169483       -5.2028345060       -7.8541737767
 O         4.6595854021       -5.5468244573       -8.9994462623
 C         2.9348525776       -4.9761386480       -7.3712006549
 C         1.9488402053       -5.6740361038       -8.3006672419
 C         0.8712654799       -4.6811381574       -8.8591650430
 O         1.1428933684       -3.5272637443       -9.0001581943
 C        -0.7584810634       -5.0432703682       -8.9921699388
 C        -0.8890352434       -5.4234153868      -10.5949227983
 O        -0.2592553733       -6.3908216067      -10.9239165117
 C        -1.7390497678       -4.4718993568      -11.4584588503
 C        -3.2579973352       -4.5169692595      -11.4948778432
 C        -3.6825410850       -4.0038545708      -12.8470057092
 O        -3.7419294813       -2.7806191568      -13.1112339084
 C        -4.1337598378       -5.0104186532      -13.8683172799
 C        -5.5783688619       -5.5448760211      -13.2621210111
 O        -5.5280372080       -6.3926952815      -12.3752705988
 C        -6.8024228174       -4.6651378375      -13.5277854902
 C        -7.7162534834       -5.2636181610      -14.6192413765
 C        -9.0167934063       -4.5191953365      -14.8480333834
 O        -8.9616116960       -3.4785977219      -15.4403842318
 C       -10.4855466772       -4.9778555466      -14.3722910685
 C       -10.3556207618       -4.4686309404      -12.8422020509
 O       -10.1910925767       -5.1772867821      -11.8224091679
 C       -10.4734869172       -2.9190065762      -12.5923335948
 C       -10.1888093563       -2.6383145190      -11.1639242428
 C       -10.3549693475       -1.1258622026      -10.8564744907
 O       -10.8204093819       -0.2970443953      -11.5757444396
 C        -9.8590271894       -0.4833111020       -9.3376092428
 C        -9.1449943713        0.8367990471       -9.7485780777
 O        -9.8244945326        1.8303611024       -9.8188231138
 C        -7.6769591551        0.7751230413      -10.0896986759
 C        -7.4894515470        1.5662835402      -11.4467075265
 C        -7.8199213344        0.6746911106      -12.6085489826
 O        -7.9942068654       -0.4936150607      -12.4080853530
 C        -7.9123542895        1.3093579037      -14.0025469653
 C        -9.0811435570        2.3178778661      -13.9862301966
 O        -9.9900294229        2.0714549647      -13.2347053797
 C        -9.0779431297        3.3676965953      -15.0767748980
 C       -10.4648186179        4.1894969797      -15.2901035630
 C       -10.3465290238        5.6945165738      -14.6474103475
 O        -9.3722778700        6.3443829141      -14.8723456194
 C       -11.6642091949        6.1809520393      -13.8169196782
 C       -11.9907190969        5.1953281448      -12.6034903655
 O       -11.0730931084        4.4986609807      -12.1106286996
 C       -13.4131144302        5.0576994099      -12.1837632399
 C       -13.8394688599        4.6080947815      -10.7808762275
 C       -14.4519001266        3.1146648186      -10.6263512064
 O       -13.7362904494        2.1805610092      -11.0444810506
 C       -15.8923545763        2.9888958124       -9.8200438561
 C       -16.0047635396        4.0170608325       -8.6119323351
 O       -15.0460941367        4.7174713376       -8.4397222750
 C       -17.3456736253        4.1714307579       -7.7652492190
 C       -18.0700069379        5.5145427601       -7.9245419303
 C       -19.2846117883        5.4655346217       -8.9654913309
 O       -19.5471576125        4.4561283288       -9.5194971877
 C       -20.1589810784        6.7367023984       -9.0528284794
 C       -19.2842661723        7.6910620073      -10.0401348170
 O       -18.8505340893        7.2576337985      -11.0566778755
 C       -19.0767378224        9.1462592459       -9.5849777773
 C       -21.4608890919        6.2859626068       -9.7468337139
 C       -20.5774066212        7.4812032342       -7.6719370596
 C       -17.0202549036        3.3592114760      -10.8352342637
 C       -15.9729885297        1.5000568460       -9.3515987066
 C       -11.5839886979        7.5350002938      -13.0842954735
 C       -12.8958609876        6.2032833029      -14.8294508366
 C        -6.6002112412        1.9254402424      -14.5003341245
 C        -8.4056023778        0.0082618523      -14.8335798676
 C       -11.2333631276       -0.2607473150       -8.5957254944
 C        -8.9995800738       -1.5052189435       -8.5157385909
 C       -11.5565277419       -4.0679090567      -15.1187938592
 C       -10.7106432273       -6.4971002196      -14.5076799302
 C        -4.3424525658       -4.1863260140      -15.1745436686
 C        -2.9840199978       -6.0413313836      -14.0600239549
 C        -1.1113967080       -6.2425990141       -8.1544486211
 C        -1.5860590277       -3.7504804620       -8.4648520781
 C         5.4084875931       -4.4817829640       -5.5348733908
 C         5.2039899645       -2.8231135982       -7.4421535236
 C        10.7526941685       -2.3387359889      -10.7336796477
 C        11.1387581562       -4.4844157880      -12.1977150064
 C        15.6425437424       -4.7182097733       -6.2100074053
 C        15.0231054431       -7.2019892835       -6.2608651452
 C         9.7460242044       -4.7909450358       -1.5835155160
 C         8.3687817010       -5.7010516476       -3.5773603606
 H        11.2616930979       -2.8269505511       -2.4247497219
 H         9.6932417731       -2.1094440630       -2.4956039381
 H        10.8948384412       -1.7887060712       -3.8737819370
 H        12.4472553016       -6.5797824395       -1.6323789295
 H        12.6309908224       -5.1440310824       -2.3762871596
 H        13.3992307361       -7.4673419584       -4.0944291548
 H        14.4795057190       -6.6569849964       -3.1471773949
 H        14.1409164124       -3.6160910238       -8.0157036151
 H        12.5904151426       -3.5344980392       -7.4541135256
 H        13.4656947421       -5.2045720754       -9.8542659368
 H        13.1327838563       -3.4194818052      -10.1059450337
 H         7.6983034274       -2.7199106108       -9.6097236678
 H         9.0521974338       -3.3587654784       -8.6399483054
 H         7.8282048242       -5.7405894298       -9.1172720402
 H         6.5673454650       -4.6815183619       -9.7119937361
 H         2.7632971231       -3.8974345424       -7.3698931140
 H         2.8822748306       -5.3716157695       -6.3680539508
 H         1.3626353524       -6.3963426089       -7.7722245464
 H         2.4859850604       -6.1514111067       -9.1499112495
 H        -1.4230693183       -4.6070247605      -12.4123733421
 H        -1.3346025584       -3.4473276931      -11.0667995296
 H        -3.7422392883       -3.8646076965      -10.6771012287
 H        -3.5986966062       -5.4976800916      -11.1973515102
 H        -6.4731810643       -3.5642816834      -13.6254979183
 H        -7.4224558681       -4.5376186532      -12.5886258942
 H        -7.8264542683       -6.2646299704      -14.4023422785
 H        -7.3025773346       -5.2471611515      -15.6186649452
 H       -11.4935432290       -2.6111236778      -12.7873314749
 H        -9.9207781707       -2.3794664857      -13.3862273207
 H        -9.2293465018       -2.9872844795      -10.6715349152
 H       -10.9218863337       -3.1428989907      -10.5365744393
 H        -7.1760871314       -0.1789150170      -10.2047301617
 H        -7.1266608018        1.3116738228       -9.3382925527
 H        -6.4137701446        1.8491502561      -11.6101592211
 H        -8.0812666767        2.4412114164      -11.3601563593
 H        -8.8448056300        2.8939673471      -16.0113790466
 H        -8.2211924168        4.1120702541      -14.9586526275
 H       -11.3453176150        3.5489424862      -15.1463788261
 H       -10.5113909014        4.3355815695      -16.3943961839
 H       -13.8263799405        4.2102149721      -12.8611168619
 H       -14.0049933538        5.9417625271      -12.3773126567
 H       -14.6572156360        5.2843472025      -10.4490826359
 H       -13.0209182507        4.7417361855      -10.0619339553
 H       -16.9514471146        4.2511379712       -6.7569467646
 H       -17.9683760343        3.2684177623       -7.9257579138
 H       -17.3812260264        6.3070830897       -8.1642092148
 H       -18.4826309797        5.7073966308       -6.9018178109
 H       -18.7026837011        9.2675162254       -8.5804750222
 H       -20.0464420179        9.6987967513       -9.7988291849
 H       -18.4302049889        9.5256370603      -10.3886929998
 H       -22.0709339196        7.0882219958      -10.1500875718
 H       -22.0095286793        5.6606378771       -9.0539301093
 H       -21.2500459429        5.5835558585      -10.6049362573
 H       -19.8295635748        8.1229993973       -7.2795164881
 H       -20.6840916047        6.7568047712       -7.0094483558
 H       -21.5808644911        7.9449329236       -7.8994036735
 H       -17.8062869299        3.7229015040      -10.2093132532
 H       -17.5224102871        2.5708768279      -11.3295822203
 H       -16.8719476379        4.2145554991      -11.4520101709
 H       -16.8305559700        1.3120469461       -8.7383283473
 H       -15.0071569012        1.3926582221       -8.8439961437
 H       -16.0038170068        0.8241441884      -10.2037727143
 H       -11.9782737469        8.3248259991      -13.7393585935
 H       -10.5155901257        7.7617622249      -13.0775095505
 H       -12.1741112163        7.6883690193      -12.1869071531
 H       -13.3763290445        5.2302494683      -14.9213497234
 H       -12.4967257616        6.3462967719      -15.8775821255
 H       -13.6941474163        6.8908086404      -14.5931686118
 H        -5.8121775042        1.1088723643      -14.6353680815
 H        -6.2239894899        2.6757012948      -13.8950467120
 H        -6.7099174427        2.2804590903      -15.4742205855
 H        -7.6055447508       -0.7544297495      -14.7471457494
 H        -8.5944936740        0.2422670332      -15.8875681656
 H        -9.3270722443       -0.5096611154      -14.3666658165
 H       -12.0793947953        0.2444194019       -9.1275753522
 H       -11.1162149779        0.3997427354       -7.7169386875
 H       -11.5824445837       -1.1680737342       -8.2014361710
 H        -9.6509139027       -2.3696238131       -8.1066955803
 H        -8.7603711734       -0.9996526897       -7.6035393922
 H        -8.0385294069       -1.8438112481       -9.0287509129
 H       -12.3828346536       -3.6585187982      -14.4555247132
 H       -11.8502255897       -4.6539874272      -15.9298157190
 H       -11.0799109006       -3.1940203124      -15.5364967912
 H       -11.6540763061       -6.8970728753      -14.1177091910
 H        -9.8790665268       -6.9556631874      -13.9234576678
 H       -10.5987173262       -6.7200035436      -15.6108222407
 H        -4.6875470999       -4.8186324759      -15.9920988947
 H        -3.3817360066       -3.7691547856      -15.4726048838
 H        -5.0559291971       -3.3778653870      -15.1697019122
 H        -2.0761498609       -5.5744083128      -14.6321860495
 H        -3.3578218277       -6.9249432873      -14.4695950857
 H        -2.3940995012       -6.3245071236      -13.1760329558
 H        -0.6560910840       -7.1294554345       -8.6130343129
 H        -2.1880141079       -6.3823882707       -8.1037485459
 H        -0.8094879079       -5.9991656379       -7.1262553941
 H        -1.2394614086       -2.8456350866       -8.9209723975
 H        -1.5103516637       -3.7705264361       -7.3814350079
 H        -2.6838258219       -3.7343227025       -8.5960556307
 H         5.7910038490       -5.4584503135       -5.1696207844
 H         4.3379112053       -4.4717738585       -5.2806120272
 H         5.9087514942       -3.7728691565       -4.7642123034
 H         6.2305368910       -2.3424661027       -7.3650744613
 H         4.6378735646       -2.3164844142       -6.7300050276
 H         4.7046232453       -2.6404460449       -8.3940044820
 H        10.8953567460       -1.7781762149      -11.6929229933
 H        11.6233397193       -1.9946001482      -10.1924001232
 H         9.8926177286       -1.9779011581      -10.1370897660
 H        11.2215098119       -3.6253727344      -12.8790572322
 H        10.3788725328       -5.1927847280      -12.4778446541
 H        12.1643399546       -4.8830891660      -12.0047249906
 H        16.1060683752       -4.7220237193       -7.2002087199
 H        16.4547685621       -5.0015902144       -5.5478705022
 H        15.1872866170       -3.6853173599       -6.0807244374
 H        15.4952966977       -7.3066645209       -5.2670911941
 H        15.6225685110       -7.3352017740       -7.1367856174
 H        14.1928029680       -7.9302381195       -6.3671781217
 H         8.9501205721       -4.0569603687       -1.4084823428
 H        10.5716074566       -4.3573780854       -1.1224834900
 H         9.2911289428       -5.6521223948       -1.1046513069
 H         7.8305739065       -6.2720622976       -2.7762761264
 H         8.4824201822       -6.3894805865       -4.4063242742
 H         7.6534093970       -4.9732798938       -3.8319395458
 Na        9.9424338202       -5.8113059361       -6.6997979902
 Na      -11.4578328791        2.3852113225      -11.3887216901
