232

 C        10.3793034007       -2.6018677651       -3.3507861190
 C        10.1769108370       -3.8901078913       -4.1039663934
 O        10.1143246173       -3.9187230703       -5.3071070399
 C         9.9640357311       -5.2002480417       -3.1682772068
 C        11.1172020820       -6.1310945172       -3.6032610560
 O        11.1590374515       -6.5564436637       -4.7161916211
 C        12.2713487591       -6.4825938277       -2.7012334253
 C        13.6048144586       -6.5727301390       -3.5787992245
 C        13.5016051565       -5.4525930292       -4.6036430591
 O        12.9355538670       -4.4350750123       -4.4330645408
 C        14.3054062267       -5.6962417653       -6.0604813288
 C        13.2582675948       -5.6510267555       -7.1427393439
 O        12.4138744767       -6.4822906160       -7.2738138901
 C        13.2087423611       -4.3732394949       -7.9565867857
 C        12.7330929623       -4.6024883006       -9.4636269784
 C        11.2189238380       -4.4574008894       -9.7574459392
 O        10.4368999696       -5.0243459699       -9.0823898852
 C        10.6981887941       -3.5704765241      -11.0119732681
 C         9.1288022119       -3.9660803025      -10.9343726601
 O         8.7667166623       -4.6667748371      -11.8408020118
 C         8.2101369467       -3.5384826287       -9.6917599824
 C         7.4880055633       -4.8653515075       -9.1677030345
 C         6.8967720365       -4.6328917606       -7.7601745836
 O         7.5785936418       -4.8500975599       -6.7970380752
 C         5.3408501853       -4.1719673156       -7.3196998172
 C         4.1909442556       -5.0578171192       -8.1203696772
 O         4.5344242768       -5.5920128282       -9.1846180805
 C         2.7546219134       -5.1256622943       -7.5445005864
 C         1.6767333435       -5.7375487689       -8.3586343220
 C         0.5127829438       -4.6979818592       -8.5820994249
 O         0.7432553537       -3.5141666586       -8.5043340654
 C        -0.9404190550       -5.0729301815       -8.9473706285
 C        -0.8680142210       -5.3714696442      -10.4802776107
 O        -0.0466674856       -6.1796524589      -10.8441935959
 C        -1.4116478057       -4.3151879554      -11.4425663482
 C        -2.9559461828       -4.5007334850      -11.4107855538
 C        -3.6280167939       -3.8612841586      -12.6946235738
 O        -3.7934512809       -2.6346015956      -12.7317420238
 C        -4.1243248207       -4.8745249216      -13.6950739045
 C        -5.5359494689       -5.3914249191      -13.2730919155
 O        -5.6384739349       -6.3696836361      -12.5426773093
 C        -6.7708307221       -4.5841360938      -13.7422232765
 C        -7.7233143477       -5.5118018917      -14.6323345192
 C        -8.9636587031       -4.6124162560      -14.8591359045
 O        -8.8005484009       -3.5568289761      -15.4030048690
 C       -10.4116532525       -5.0509756473      -14.1611046115
 C       -10.3818683906       -4.3425300378      -12.7186571893
 O       -10.2238314590       -5.0825041491      -11.7158185586
 C       -10.4741373325       -2.8111423985      -12.5288218511
 C        -9.8310258148       -2.3163798154      -11.2794259891
 C       -10.3091362878       -0.8724145139      -10.9749153464
 O       -10.9565315828       -0.2796088002      -11.8054277241
 C        -9.8764438071       -0.2458777965       -9.6150191165
 C        -9.2277912080        1.2378711953       -9.8825099365
 O        -9.8776814387        2.2506917993       -9.9221440007
 C        -7.7474459582        1.3282398408      -10.0941439475
 C        -7.4115338884        1.7049533237      -11.6129611217
 C        -7.8475130546        0.6649358142      -12.6402880175
 O        -8.0208172230       -0.4678594807      -12.3365492212
 C        -8.0016005670        1.2878594691      -14.0741675879
 C        -9.2203264673        2.2042418745      -14.1984591340
 O       -10.2142130128        1.8676605896      -13.5786265655
 C        -9.2905341162        3.3985349276      -15.3083844514
 C       -10.6314928810        4.0892156561      -15.0516375563
 C       -10.5281185702        5.5753444725      -14.5825766076
 O        -9.4998016160        6.1606258132      -14.7470599787
 C       -11.7518944427        6.1574523929      -13.7415644451
 C       -12.0841250899        4.9921867108      -12.6870763863
 O       -11.0889701622        4.6173707259      -12.0336054966
 C       -13.4708250686        4.3905346728      -12.3704304100
 C       -13.6014432691        4.2943615596      -10.7866437639
 C       -14.2753220912        3.0045521640      -10.4028254444
 O       -13.8735480956        1.9081712894      -10.8263778077
 C       -15.6841184163        3.0963830932       -9.8701385790
 C       -15.8923275549        4.2319085727       -8.7023110259
 O       -15.0344499730        5.0361820703       -8.4377026175
 C       -17.2759117927        4.1439450060       -7.8180246224
 C       -17.9586021392        5.4986215731       -8.0792350282
 C       -19.3437252486        5.2296103771       -8.7425063104
 O       -19.6557716563        4.1489205091       -9.1585338325
 C       -20.0340213994        6.6610939524       -8.7884831236
 C       -19.2221855872        7.5468826703       -9.7918313031
 O       -18.7775116879        7.1101151246      -10.7680440407
 C       -18.8695012241        9.0782088087       -9.3700467141
 C       -21.3849560337        6.4965285033       -9.4906087072
 C       -20.3599140259        7.1064074503       -7.2463883784
 C       -16.6568130454        3.4532654728      -11.0420763518
 C       -16.0420163358        1.7547310578       -9.1007421423
 C       -11.2029829207        7.4354439870      -13.0343337477
 C       -12.8679945986        6.3942481145      -14.7425642086
 C        -6.6368564091        2.1456703123      -14.2827232560
 C        -8.0887486199        0.2113891273      -15.1799365149
 C       -11.2191261177       -0.1137621741       -8.8021401311
 C        -9.0304724274       -1.3019742304       -8.7675088462
 C       -11.5266841056       -4.5536291925      -15.0951044933
 C       -10.4491820934       -6.5520165939      -13.9418769679
 C        -4.0457267535       -4.2928463590      -15.1297777752
 C        -3.2590280674       -6.3273830997      -13.7661268962
 C        -1.2072507473       -6.4616175922       -8.3636033147
 C        -1.9235238592       -4.0596600907       -8.4307969538
 C         5.0521070183       -4.4756007446       -5.7927726856
 C         5.1849312079       -2.6383562767       -7.4387580434
 C        11.1133172209       -2.0937154074      -10.6975044962
 C        11.2365117681       -3.9795360287      -12.4274758408
 C        15.5490488056       -4.7580354577       -5.9722807118
 C        14.8492436055       -7.1087827766       -6.0255130278
 C        10.0719878332       -4.9460968998       -1.6622871972
 C         8.5441500186       -5.7297935285       -3.6021093081
 H        11.0234864068       -2.5916038816       -2.4969543277
 H         9.4110016671       -2.1175710146       -2.9942246896
 H        10.8260171992       -1.9909985068       -4.1039105786
 H        12.0031724563       -7.4400504198       -2.1942145442
 H        12.5093605882       -5.8538678505       -1.8722050850
 H        13.7080784700       -7.5470276052       -3.9509221910
 H        14.5574011278       -6.3860998073       -3.0454181983
 H        14.1730231359       -3.8843731996       -8.0110749427
 H        12.4885587352       -3.5971176097       -7.5380950781
 H        12.7754626258       -5.5997305990       -9.7542090421
 H        13.1959940661       -3.9027408516      -10.1519326112
 H         7.3314231296       -2.8195795675       -9.9867708001
 H         8.7765184831       -2.9870635886       -8.9277315623
 H         8.2806848162       -5.6625243789       -9.1076790599
 H         6.6780743428       -5.1157594190       -9.8579714443
 H         2.5555747392       -4.0889247705       -7.2472019574
 H         2.8137083083       -5.7885611759       -6.6437029881
 H         1.3897684192       -6.6788491507       -7.8592154697
 H         1.9727483950       -6.1166458993       -9.3647419206
 H        -0.9163011161       -4.3853175871      -12.3795769537
 H        -1.1720044845       -3.2837384510      -11.0387398249
 H        -3.1708204978       -4.0439815026      -10.4952271858
 H        -3.2842004814       -5.4993667770      -11.1964398181
 H        -6.5098426594       -3.7221502324      -14.3619142432
 H        -7.2418776580       -4.2161288179      -12.8543650255
 H        -7.9707919835       -6.4325402535      -14.1893958306
 H        -7.1682595892       -5.8127793390      -15.5514295248
 H       -11.5582362385       -2.6843316906      -12.4665968033
 H       -10.2219535274       -2.1612916998      -13.3797723891
 H        -8.7680823406       -2.2574858510      -11.3058863974
 H        -9.8936121983       -2.9390964503      -10.4045736542
 H        -7.1909835283        0.3871501503       -9.9311981963
 H        -7.1499265382        2.1201551771       -9.5985368193
 H        -6.3672351223        1.8335188702      -11.6644895875
 H        -7.8166133442        2.7396853527      -11.7920067542
 H        -9.2214912844        3.0077447684      -16.3135173242
 H        -8.3919693149        4.2055696027      -15.2597316045
 H       -11.1642922842        3.4157282399      -14.4065777421
 H       -11.2475124791        4.0864882036      -15.9944188220
 H       -13.4657467345        3.3659466084      -12.8376051439
 H       -14.3606852434        4.8133050880      -12.7454965742
 H       -14.0586365606        5.2113554212      -10.3233448846
 H       -12.5711628889        4.2650290962      -10.3929490064
 H       -16.8518095378        4.1252702726       -6.8220544189
 H       -17.9375701262        3.2951059839       -8.0920567367
 H       -17.3869541785        6.1465499773       -8.7130052729
 H       -18.1508390644        6.0291004796       -7.1633416979
 H       -17.9627501776        9.0411261871       -8.7811168760
 H       -19.6257162727        9.4868866658       -8.7152516356
 H       -18.6987508912        9.7340539077      -10.2168666064
 H       -21.4635715502        7.3585804104      -10.1470503407
 H       -22.2067424438        6.5333775554       -8.7779785115
 H       -21.5979420527        5.6197958825      -10.0483244218
 H       -19.6867546505        6.6906029578       -6.4813830482
 H       -21.2141411350        6.6505425443       -7.0289148203
 H       -20.4102012476        8.2583029054       -7.2740378853
 H       -17.6694919762        2.9769581635      -10.9488667007
 H       -16.3206574298        3.1404686424      -12.0724751120
 H       -16.8535358505        4.5681295103      -11.1771803141
 H       -17.1059598899        1.7443047514       -9.0111313493
 H       -15.5801713062        1.8109455700       -8.0593462296
 H       -15.6485819508        0.8575540680       -9.5645390259
 H       -11.0202791829        8.2660650453      -13.7200998433
 H       -10.2024931369        7.3400609380      -12.6377560243
 H       -11.9985095242        7.6625457995      -12.3138792345
 H       -13.0791466069        5.6005187303      -15.3966098066
 H       -12.6619792354        7.1868679617      -15.4918233781
 H       -13.7647392165        6.5474038693      -14.1732552495
 H        -5.6831916688        1.4301477117      -14.0403717245
 H        -6.7001298757        3.0318195901      -13.7059921230
 H        -6.5446016713        2.4821571620      -15.3723937734
 H        -7.3640394909       -0.5175371957      -14.9552203278
 H        -7.9373343025        0.6117481458      -16.1654142224
 H        -9.0461664582       -0.2989506228      -15.0354216965
 H       -11.7841546318        0.7955666124       -9.0474647213
 H       -11.1169248530       -0.0534076862       -7.6672849763
 H       -11.8532652284       -0.8777647602       -9.0450410314
 H        -9.6783936332       -2.1721830127       -8.5365087647
 H        -8.7224742503       -0.9621137922       -7.8472374064
 H        -8.2505788861       -1.7615626315       -9.3388567593
 H       -12.4616511130       -5.1416933187      -14.8424795608
 H       -11.2755089897       -4.6887493345      -16.0984765217
 H       -11.7920786872       -3.5614743238      -14.7989194144
 H       -11.4586805472       -6.8010247073      -13.8300936350
 H        -9.9035727261       -6.8021768674      -13.0136167207
 H       -10.0080091448       -7.0786128436      -14.7457840601
 H        -4.4745938131       -5.0730703160      -15.8027849499
 H        -3.0511945823       -4.0211262306      -15.4296783459
 H        -4.7071734301       -3.4019985344      -15.2638942481
 H        -2.1233579752       -6.0110238419      -13.6366553573
 H        -3.3206465785       -6.9089277496      -14.6652164962
 H        -3.4551940479       -7.0388278982      -12.9885958459
 H        -0.4351167303       -7.1004063753       -8.6972269546
 H        -2.2038977853       -6.8421808405       -8.5497390045
 H        -1.2830389047       -6.1973450158       -7.2789516966
 H        -1.8245184743       -3.1333641422       -9.0022208393
 H        -1.8041206345       -3.7849651651       -7.3989190820
 H        -2.9653354692       -4.4740013497       -8.4642976244
 H         4.7666680357       -5.4411213189       -5.6119628325
 H         4.2690693261       -3.8659835572       -5.3993947254
 H         5.9753319986       -4.4738203677       -5.2141161333
 H         5.5174347872       -2.1154582406       -6.4812574982
 H         4.1853289601       -2.4248285396       -7.7048732518
 H         5.7693294806       -2.2364809493       -8.2988114992
 H        10.2802539619       -1.4398690623      -11.0455554359
 H        12.0034785071       -1.7816000025      -11.2468051176
 H        11.2664081368       -1.8468564752       -9.6979371454
 H        10.5789052062       -3.5071213110      -13.1578872731
 H        11.1156416905       -5.0100141172      -12.4176650081
 H        12.2788282856       -3.7091301494      -12.4758179351
 H        16.3168109225       -4.9441567860       -6.6507158214
 H        16.0071420432       -4.8867856495       -4.9911517661
 H        15.0919164364       -3.7491827269       -6.0257221359
 H        15.5698773376       -7.1738846713       -5.2162733950
 H        15.2693922687       -7.1721086635       -6.9930466284
 H        14.1570464392       -7.9437794818       -5.9968227494
 H         9.2037450252       -4.4809020954       -1.1462010548
 H        10.8942484861       -4.3166251415       -1.3384898538
 H        10.0996959081       -5.9405704797       -1.2228706690
 H         8.0722151630       -6.4306596228       -2.9033301223
 H         8.4971528446       -6.2822005324       -4.5350082207
 H         7.8535678492       -4.8861362938       -3.5877532208
 Na       10.0301742326       -5.8033802348       -6.7191204675
 Na      -11.6875072184        1.8421249456      -11.5586430377
