232

 C        10.3387256619       -2.5678565619       -3.4338853828
 C        10.1704429757       -3.8704026173       -4.1038834721
 O        10.0776283619       -3.9516876720       -5.3366389137
 C         9.9987138865       -5.1898548067       -3.2296720732
 C        11.0927998448       -6.1746243828       -3.7037926486
 O        11.2297820329       -6.5963186095       -4.8744975324
 C        12.2428650986       -6.5948863024       -2.7273012000
 C        13.5630700506       -6.5923674233       -3.5699866780
 C        13.4958405901       -5.5053583053       -4.5836584107
 O        12.9637658436       -4.4110484053       -4.3885633959
 C        14.2721727889       -5.7259311969       -5.9306890746
 C        13.2149052344       -5.5741429892       -7.1104994880
 O        12.4419174543       -6.5419871113       -7.2787558781
 C        13.1275998291       -4.2765287791       -8.0349992821
 C        12.7531783654       -4.6900535391       -9.4640962268
 C        11.2311685455       -4.4320303142       -9.7159949657
 O        10.3672239726       -4.7825790097       -8.9141407945
 C        10.7119070401       -3.5762697784      -10.9015162831
 C         9.1328173616       -3.9179944009      -10.9163557805
 O         8.7377964844       -4.6613481363      -11.8010101668
 C         8.1812429230       -3.6251633094       -9.7915866285
 C         7.2271630368       -4.8030703307       -9.3285196817
 C         6.8151589435       -4.7083881572       -7.7491170823
 O         7.7640100299       -4.9301334954       -6.9300586059
 C         5.3250072906       -4.2060705536       -7.3912328355
 C         4.2266404778       -4.9300266106       -8.2511947634
 O         4.4483389943       -5.5902370724       -9.2417861164
 C         2.7862966236       -5.0891179989       -7.6072385606
 C         1.6237455763       -5.6768628429       -8.4805436302
 C         0.4844208667       -4.6016255269       -8.4894064608
 O         0.7232960604       -3.4544759809       -8.1976481202
 C        -0.9409097454       -5.1736680800       -8.8550307078
 C        -0.5895821309       -5.2341617568      -10.4432900037
 O        -0.0413038596       -6.2069081552      -10.8917775074
 C        -1.3204308070       -4.2681321119      -11.4737710693
 C        -2.8252931683       -4.4898598521      -11.4041579666
 C        -3.6317163968       -3.9596731717      -12.7367674241
 O        -3.9154459624       -2.7674494492      -12.8258094085
 C        -4.1093177475       -4.9946884630      -13.7361564804
 C        -5.5867577369       -5.3374231558      -13.2608257219
 O        -5.8944927291       -6.3025848238      -12.5575367208
 C        -6.7098022340       -4.4920784273      -13.7696457696
 C        -7.6796817952       -5.4668233168      -14.5476242565
 C        -8.9560831426       -4.6741448101      -14.7209242854
 O        -9.0010420161       -3.6592971923      -15.3639481059
 C       -10.3206164548       -5.1073645143      -14.0751969991
 C       -10.3990389515       -4.3443689714      -12.7286428183
 O       -10.1844225340       -4.9327931549      -11.6885805042
 C       -10.5822106359       -2.8448155815      -12.6702487122
 C        -9.9358616382       -2.3556424175      -11.3766645837
 C       -10.2656630767       -0.9329405732      -10.9907996061
 O       -11.0481246889       -0.4041098814      -11.7620427943
 C        -9.9240962141       -0.1946148656       -9.7261638617
 C        -9.3054245729        1.2626709312       -9.9496651533
 O        -9.9919674388        2.2463524610      -10.0428396390
 C        -7.8094592177        1.3554452528      -10.1024979003
 C        -7.3858477827        1.8884589494      -11.5688203432
 C        -7.7567409100        0.8499355319      -12.6996945565
 O        -7.9823467999       -0.3756680972      -12.5755829229
 C        -7.8538474212        1.4140586782      -14.0979104135
 C        -9.3197880081        2.1516428652      -14.2813023514
 O       -10.2409954956        1.7517488533      -13.6062716954
 C        -9.3705442617        3.2787454510      -15.1546070672
 C       -10.7187204843        4.0392117655      -15.1906223028
 C       -10.4249051415        5.4278288523      -14.6166822005
 O        -9.4117726066        6.0182926732      -14.7694192935
 C       -11.7785828460        6.0521368014      -13.7499753519
 C       -12.0537062660        4.9634605961      -12.7084274183
 O       -11.0603094754        4.5639814352      -12.0448191354
 C       -13.3603671994        4.3768863868      -12.3827246869
 C       -13.5615272768        4.2411760316      -10.8621018869
 C       -14.3012161750        2.9614560827      -10.4114806013
 O       -13.7476025367        1.8735820876      -10.6750244393
 C       -15.6742587644        3.1001397790       -9.7741215171
 C       -15.8621908475        4.1294206072       -8.6774821229
 O       -15.0316206897        4.9799394863       -8.5009254247
 C       -17.1207693536        4.1360170688       -7.9331786839
 C       -17.8606865439        5.4540836955       -7.9942326363
 C       -19.3458584161        5.2951653075       -8.5821420372
 O       -19.7805352505        4.2554972004       -8.9741693484
 C       -20.1446454895        6.6383287463       -8.7349475028
 C       -19.1705331184        7.5215211007       -9.5806165397
 O       -18.6741034869        7.1152429928      -10.6572917928
 C       -18.8218289618        9.0001489655       -9.2636076408
 C       -21.5526307205        6.4147541008       -9.4629198437
 C       -20.3118917263        7.1215730759       -7.2606444987
 C       -16.4805160431        3.5240123184      -11.0656411431
 C       -16.0853851335        1.7362482132       -9.0833851232
 C       -11.3454696306        7.2655615812      -12.8860955806
 C       -12.8849701944        6.5369395622      -14.6996227843
 C        -6.6051423339        2.3203654024      -14.3360183787
 C        -8.0956204398        0.2393480425      -15.1301019635
 C       -11.2236258684        0.0186519378       -8.8662290720
 C        -8.9491426756       -0.9836479739       -8.8209937020
 C       -11.3488515523       -4.5932187802      -15.0588828688
 C       -10.4049017586       -6.6097022000      -13.8302019723
 C        -4.0091062026       -4.3003618750      -15.0883437340
 C        -3.1324089105       -6.1200009939      -13.7111293281
 C        -1.2713173785       -6.6526550922       -8.2647512541
 C        -2.0187247934       -4.2305703018       -8.3442343638
 C         5.1158107342       -4.4213049900       -5.8714054579
 C         5.1696930465       -2.7013349470       -7.6530986852
 C        11.0493736491       -2.0795897546      -10.4864280490
 C        11.2282939558       -4.0145529193      -12.3155798330
 C        15.4518049664       -4.6671426361       -5.9668907340
 C        14.8526995449       -7.2337071309       -6.1138939430
 C        10.0438170561       -4.9070308599       -1.7479250014
 C         8.5876914342       -5.7424035756       -3.5246609160
 H        11.2206395442       -2.5844266095       -2.6241649250
 H         9.4326627448       -2.2737090777       -2.8420647584
 H        10.6304386403       -1.7672204027       -4.1795661283
 H        12.1130653998       -7.6355461782       -2.3286260532
 H        12.4122801398       -6.0077853255       -1.8604055985
 H        13.5947238999       -7.5280232585       -4.0183471090
 H        14.5047147564       -6.4594191776       -3.0682185984
 H        14.1031202997       -3.7974146428       -8.1515482418
 H        12.4024057314       -3.5480907989       -7.6710927949
 H        12.8607880865       -5.7518123158       -9.6316257284
 H        13.1858040753       -3.9870723953      -10.2055551139
 H         7.5073658912       -2.7902506058      -10.1864275652
 H         8.6792858750       -3.1270612934       -8.9379049083
 H         7.9873865876       -5.6292068235       -9.4067091600
 H         6.2878698396       -4.9642741575       -9.9877293851
 H         2.5397489052       -4.0772875815       -7.2695516114
 H         2.8979155467       -5.7675221648       -6.7697629673
 H         1.3478571941       -6.6685438632       -8.2058178069
 H         1.8949913031       -5.8439522911       -9.5445569879
 H        -0.9727636090       -4.4642814372      -12.4182208764
 H        -1.0622823119       -3.1499567026      -11.2904061227
 H        -3.1780656427       -4.3222457821      -10.3435031145
 H        -2.9181005012       -5.5283739746      -11.3886527852
 H        -6.4816738779       -3.5976124872      -14.4482900394
 H        -7.1941630765       -4.1540018347      -12.8168585605
 H        -7.7940245601       -6.4138204538      -14.1207057865
 H        -7.2782990991       -5.6303691285      -15.4933301407
 H       -11.5523460752       -2.4806121687      -12.9287295624
 H        -9.9411977109       -2.4358076198      -13.4776483837
 H        -8.8352715115       -2.6023641486      -11.3332214198
 H       -10.1931498095       -2.8740925422      -10.4969338843
 H        -7.2144224783        0.4455414564       -9.9061391283
 H        -7.4315927714        2.1300348436       -9.4431916078
 H        -6.2859480558        2.0650541176      -11.6510112812
 H        -7.7804726878        2.8317787027      -11.6918637427
 H        -9.1034926501        2.8307510054      -16.1734729532
 H        -8.5392671096        4.0061148461      -14.9860985641
 H       -11.5511661093        3.4422553312      -14.7263922798
 H       -11.0130122925        4.2152271891      -16.2657507841
 H       -13.3578696474        3.3681554593      -12.9653223725
 H       -14.3240446637        4.8247208517      -12.7114523618
 H       -14.0862334209        5.2004973542      -10.5793471974
 H       -12.5884322246        4.2546690261      -10.2819279974
 H       -16.6592096904        4.0362171732       -6.9313053458
 H       -17.7574367725        3.2706620390       -8.2229723145
 H       -17.4128287196        6.1168886903       -8.6795160966
 H       -17.8338806760        5.9864462794       -7.0391750007
 H       -17.8757821355        9.1638528870       -8.8516115293
 H       -19.6096750102        9.3751963185       -8.5738876087
 H       -18.8451504235        9.5505670861      -10.1901460272
 H       -21.7392505419        7.3149544271      -10.0148128461
 H       -22.3832997654        6.2032150487       -8.8425082881
 H       -21.5617066606        5.5483218335      -10.2113616504
 H       -19.5787601791        6.7791011089       -6.6188408096
 H       -21.2483561761        6.6804669682       -6.9114101018
 H       -20.2981637764        8.1927185557       -7.3251342010
 H       -17.4731254681        3.0724005168      -10.9495448774
 H       -16.1511438523        2.9800219605      -11.9802877639
 H       -16.5921957245        4.5777577231      -11.3864323178
 H       -17.1800911831        1.6771632175       -8.9754790191
 H       -15.6192867366        1.6642461251       -8.0939701909
 H       -15.6671047867        0.9073925648       -9.6787867161
 H       -10.6914824707        7.9093342561      -13.4488511468
 H       -10.6885935192        7.0865715202      -12.0488500267
 H       -12.2771283801        7.6924779434      -12.5796971654
 H       -13.4526182279        5.8384220851      -15.2874410799
 H       -12.5725248783        7.2425713973      -15.4539811853
 H       -13.5728447318        6.9467756338      -13.9990523603
 H        -5.8051414819        2.0161700758      -13.7541873814
 H        -6.8788237550        3.4374405310      -14.2232869213
 H        -6.3235432844        2.2044667634      -15.3463412904
 H        -7.3533570932       -0.5569062464      -15.0632270619
 H        -8.1369382064        0.5771895938      -16.1387339566
 H        -9.0572323797       -0.2202735957      -14.7249800964
 H       -11.8709638091        0.8479907401       -9.2135257958
 H       -11.0756110247        0.1494801520       -7.8324494388
 H       -11.8401163215       -0.8585391866       -9.0405093466
 H        -9.3815722121       -1.8889147953       -8.3424598223
 H        -8.5139030475       -0.3813214870       -8.0380058985
 H        -8.1764233269       -1.4414685217       -9.4893902097
 H       -12.2844520942       -5.1146030834      -14.8333447974
 H       -11.0721497078       -4.8499667878      -16.0446824218
 H       -11.5355434258       -3.5746139020      -14.8865495529
 H       -11.4414161241       -6.8025428701      -13.5605072282
 H        -9.7451059617       -6.8334128266      -13.0203861832
 H       -10.0857955063       -7.2283664582      -14.7206928424
 H        -4.6756607314       -4.7423364576      -15.8199917599
 H        -2.9700443746       -4.1728278029      -15.5234240819
 H        -4.4150151762       -3.2943294167      -14.8786086199
 H        -2.0835143913       -5.7494206410      -13.5626484628
 H        -3.0454929425       -6.7437661197      -14.6156443777
 H        -3.3514141332       -6.9015049488      -12.9075850938
 H        -0.6685603740       -7.4511190851       -8.8407401596
 H        -2.3615370801       -6.7818833672       -8.3459223370
 H        -1.1877733608       -6.5667670878       -7.2012709504
 H        -1.7909276301       -3.2672856857       -8.7624870207
 H        -2.0279317255       -4.0126025309       -7.2805728958
 H        -2.9993953683       -4.5753121096       -8.6020765975
 H         4.8081646173       -5.4835633016       -5.6306846184
 H         4.3276160711       -3.8293105606       -5.5420534689
 H         6.0371984419       -4.3362644920       -5.2600399196
 H         5.4973436930       -2.1921491036       -6.7040956745
 H         4.1894874665       -2.3906540426       -8.0379088795
 H         5.9238115201       -2.3944093995       -8.4333615110
 H        10.1762608466       -1.4103166688      -10.5777708161
 H        11.8730653093       -1.7201900035      -11.0401295745
 H        11.3822305560       -1.9304640058       -9.4319302256
 H        10.4593735779       -3.7165912035      -12.9571335809
 H        11.3575150910       -5.0774346233      -12.3191137946
 H        12.1894635891       -3.5373726074      -12.4496594864
 H        16.2346331901       -5.0886869015       -6.6300373808
 H        15.9215062490       -4.4659731769       -5.0133883738
 H        15.0230790624       -3.7354456219       -6.3473274386
 H        15.6108674424       -7.3497262768       -5.3108827270
 H        15.2351458287       -7.3482907701       -7.1148484372
 H        14.1082132414       -8.0166163785       -5.9302415836
 H         9.0894681225       -4.5251884821       -1.3995143082
 H        10.7621392977       -4.2000921361       -1.3795859797
 H        10.1525169496       -5.8572509756       -1.1809479272
 H         8.3151725550       -6.7460690701       -3.1433124090
 H         8.5371503794       -5.9335422398       -4.5749064566
 H         7.8384038337       -5.0883143090       -3.2058680541
 Na       10.1385485401       -5.6435303175       -6.7605768305
 Na      -11.6624851865        1.8195142526      -11.5662861819
