232

 C        10.3277522643       -2.4831376586       -3.4828274190
 C        10.1595764090       -3.8555701342       -4.1091068957
 O        10.0820013671       -3.8728550659       -5.3107786207
 C        10.0028989071       -5.1946208594       -3.2816188916
 C        11.0854107097       -6.2222966680       -3.7690259560
 O        11.0415180478       -6.6490626570       -4.9203138476
 C        12.1692986128       -6.6675190595       -2.7865917921
 C        13.5230887439       -6.6852752783       -3.4540160986
 C        13.6529257736       -5.5150470369       -4.5877644969
 O        13.0394311950       -4.4487661441       -4.3682599445
 C        14.3055743765       -5.7085425722       -5.9582990971
 C        13.2346189965       -5.5470570824       -7.1195701872
 O        12.4386655372       -6.4657656304       -7.3459791648
 C        13.1226087755       -4.3520790202       -8.0275484761
 C        12.7036382452       -4.7228601535       -9.4715897349
 C        11.1801406069       -4.4098655292       -9.6263286104
 O        10.4618421086       -4.6620877863       -8.6549723224
 C        10.5882164591       -3.6303436329      -10.7753607469
 C         9.0160898681       -4.0161420019      -10.8923155200
 O         8.6806178398       -4.6502615579      -11.8508604687
 C         8.0672841567       -3.5509714682       -9.7521723061
 C         7.1064112371       -4.6278188232       -9.4289622848
 C         6.7927271092       -4.6771742895       -7.8984849928
 O         7.6344148664       -5.0009079024       -7.0832726445
 C         5.4212446054       -4.3130110864       -7.5102010224
 C         4.3011139528       -5.1296574252       -8.2723940659
 O         4.4133003875       -5.5170419182       -9.3728735713
 C         2.9207987541       -5.0362540355       -7.5051004638
 C         1.7946640154       -5.4219609250       -8.4863436449
 C         0.5329387785       -4.6606946413       -8.2699232258
 O         0.5268162344       -3.4796674602       -7.9576530087
 C        -0.8917037293       -5.2211359799       -8.8558022797
 C        -0.7357940251       -5.3086336344      -10.3981341704
 O        -0.0031215724       -6.1584710934      -10.8984035346
 C        -1.2944605369       -4.2483510341      -11.3478017600
 C        -2.8134281185       -4.3496186415      -11.4450866078
 C        -3.6270808973       -4.0035082042      -12.6489743054
 O        -3.9471287516       -2.8754967967      -12.7597662930
 C        -4.0384248104       -5.0584197935      -13.7237900519
 C        -5.5720057441       -5.3759837884      -13.3019040014
 O        -5.8060174949       -6.2604503727      -12.5457142531
 C        -6.6753931181       -4.3948370573      -13.8311233005
 C        -7.6710757751       -5.2973776596      -14.4629761712
 C        -9.0037095127       -4.6627412950      -14.7384253884
 O        -9.0611735645       -3.6224538738      -15.4019790020
 C       -10.3411069457       -5.1775051013      -14.0152194245
 C       -10.2974615036       -4.3927159339      -12.6641001844
 O       -10.1841712867       -4.9263359749      -11.6087668169
 C       -10.4743994491       -2.8690238713      -12.7324207669
 C        -9.9880164759       -2.3541173069      -11.4015042190
 C       -10.4344427077       -0.8966361271      -11.0967518495
 O       -11.2612754853       -0.3119797811      -11.8105775977
 C        -9.9021104420       -0.1598887804       -9.7020845179
 C        -9.3085168393        1.2236874607      -10.0685843585
 O       -10.1084981087        2.1656935930      -10.2128394643
 C        -7.8073792239        1.3836126859      -10.1845908389
 C        -7.4253520414        1.8980509919      -11.5663391680
 C        -7.7101565937        0.9574950723      -12.6767146981
 O        -7.9028508315       -0.2397501707      -12.4643030429
 C        -7.8543016048        1.5201291645      -14.1463701231
 C        -9.3600399605        2.2028876398      -14.1747306366
 O       -10.2358236193        1.6471391840      -13.5766669452
 C        -9.3937315941        3.2568033561      -15.2686018307
 C       -10.7683014503        4.0914233795      -15.4059533907
 C       -10.5800027419        5.4218736957      -14.6766747793
 O        -9.4589146646        5.9586531219      -14.6722404394
 C       -11.7194197913        6.0771055420      -13.6995944236
 C       -11.9175991359        4.8169371906      -12.7079913150
 O       -11.0140661662        4.3313111456      -12.0706127805
 C       -13.4159125699        4.3562591128      -12.4536768520
 C       -13.5292972847        4.2810876148      -10.9317892497
 C       -14.2273298833        2.9186894510      -10.4004429569
 O       -13.6463101934        1.8504362627      -10.4602557649
 C       -15.6686401418        2.9500544488       -9.8202576612
 C       -15.7583843342        4.1659202452       -8.6348644871
 O       -14.8949875026        5.0078470516       -8.5606921884
 C       -17.1407259455        4.1109276474       -7.8648503637
 C       -17.8831771183        5.4014585609       -7.9511701836
 C       -19.3110846259        5.3393813326       -8.5378006259
 O       -19.8360937479        4.2472982203       -8.7624775540
 C       -20.1602103787        6.7154878176       -8.6453539881
 C       -19.2479977045        7.5932187344       -9.5431897974
 O       -18.6264108577        6.9970141774      -10.4898243858
 C       -18.8816261589        8.9951064974       -9.1087197149
 C       -21.4290295187        6.3723161788       -9.3733223290
 C       -20.4306632939        7.3024081761       -7.2753868450
 C       -16.5090302505        3.4142529060      -10.9881291798
 C       -16.0929776436        1.5832286030       -9.3178338540
 C       -11.2806730388        7.2524491637      -12.8322186947
 C       -12.8423159743        6.4851884689      -14.6347761325
 C        -6.6987101577        2.4390585770      -14.5890658859
 C        -7.9453730097        0.2894771310      -15.1217707537
 C       -11.2410828325        0.1012520935       -8.9200616361
 C        -8.8045567549       -0.8319837716       -8.7882849769
 C       -11.4675675656       -4.6879005583      -15.0622392990
 C       -10.3770713605       -6.7627660677      -13.7388986047
 C        -4.0731776100       -4.3001618211      -15.1455073526
 C        -3.0378841973       -6.2336071108      -13.7534920576
 C        -1.1854949940       -6.6506604240       -8.3214120358
 C        -2.0195702062       -4.3116442392       -8.3344724218
 C         5.2714844138       -4.4707589396       -5.9382162979
 C         5.2609218399       -2.7632132858       -7.9620896208
 C        10.8446442674       -2.1541010874      -10.3981209364
 C        11.3384295558       -3.9601659715      -12.0927720707
 C        15.3519283594       -4.6486204383       -6.0522678590
 C        14.8856846592       -7.1460213224       -6.1925777545
 C        10.0223532083       -4.8843704618       -1.7422845079
 C         8.6239476510       -5.8553868287       -3.5962227340
 H        11.3264200555       -2.3547477384       -3.0147361498
 H         9.6541464729       -2.3857688631       -2.6218694257
 H        10.2067952610       -1.5905652629       -4.2021927041
 H        12.0692162189       -7.5621590120       -2.1951419138
 H        12.3317744774       -5.8551178083       -2.0401218884
 H        13.6268785714       -7.7593012249       -3.8816404438
 H        14.2644912624       -6.5723465625       -2.6905791880
 H        14.0728162342       -3.7966416966       -8.1640961915
 H        12.3683100353       -3.7761195238       -7.5249385182
 H        12.7646704143       -5.8676226703       -9.5536182618
 H        13.1963658296       -4.1012780885      -10.2061759334
 H         7.4946006284       -2.7600228306      -10.1309892635
 H         8.5923076987       -3.0672582617       -8.9057976606
 H         7.6327959066       -5.5123258585       -9.8187301353
 H         6.1124424565       -4.4404655364       -9.9015002286
 H         2.9140050646       -3.9752006478       -7.2695633807
 H         2.8450105913       -5.6647604911       -6.6434095608
 H         1.6215179628       -6.4970178354       -8.5038269725
 H         2.0455141692       -5.3103783014       -9.5308455710
 H        -0.7572260181       -4.2202420641      -12.3859535808
 H        -1.0504470569       -3.3324607135      -10.9218701184
 H        -3.1539830094       -3.8802451138      -10.4982345716
 H        -3.0740454199       -5.4331395754      -11.1861913291
 H        -6.3481313411       -3.5758449415      -14.5054245150
 H        -7.1809195613       -4.0036031759      -12.8649927826
 H        -7.7811035700       -6.2201645502      -13.8183557021
 H        -7.3163061807       -5.6268773790      -15.4020618298
 H       -11.5506667100       -2.6123316026      -12.8257800682
 H       -10.0293795645       -2.4000999243      -13.6030960146
 H        -8.9782885316       -2.5978638172      -11.0264410088
 H       -10.5305430783       -2.9285001689      -10.6157003132
 H        -7.2155601192        0.5396541499       -9.9585398890
 H        -7.5682803641        2.1711343382       -9.4675663925
 H        -6.3721525966        2.2051001663      -11.7724224501
 H        -7.9400235465        2.8341912411      -11.6418581173
 H        -9.0669814548        2.6502229762      -16.1739689662
 H        -8.6492330061        3.9344495720      -15.1548550063
 H       -11.5842824148        3.5237258726      -14.8490625703
 H       -11.1047919827        4.2565363479      -16.4255998615
 H       -13.6205399074        3.3669591245      -12.9280660733
 H       -14.3031269034        4.9985057120      -12.8647600279
 H       -13.9804237560        5.2004194199      -10.5738356274
 H       -12.4889458346        4.2819475039      -10.4998839914
 H       -17.0068643071        3.7297813569       -6.8330183899
 H       -17.6522635708        3.3693097944       -8.4826835868
 H       -17.3550763361        6.1386472553       -8.6021464579
 H       -17.9813084313        5.9554998458       -7.0072944254
 H       -17.8735806829        8.9051481041       -8.6419060129
 H       -19.5789585301        9.3487307656       -8.3518452377
 H       -18.7043705466        9.6960511426       -9.9253046469
 H       -21.9722986353        7.2614201053       -9.7335494321
 H       -22.1579311188        5.7441779118       -8.8466791299
 H       -21.1556380821        5.7500984850      -10.2333161528
 H       -19.5199801226        7.3557334203       -6.6766871196
 H       -21.2297456168        6.6676220453       -6.7401734507
 H       -20.6899889949        8.2594329586       -7.4458956746
 H       -17.5657374940        3.4165783371      -10.7682457270
 H       -16.4732295907        2.8410208190      -11.8904901038
 H       -16.2008985870        4.4013156213      -11.2964896301
 H       -17.2083477429        1.5338714971       -9.2970077958
 H       -15.7393748462        1.3783127291       -8.3383023637
 H       -15.6372209589        0.8435035619       -9.9963397407
 H       -10.3958162021        7.7466520025      -13.1703698713
 H       -10.9205327919        6.9720045298      -11.8369272225
 H       -12.1572796526        7.8403595508      -12.6516262180
 H       -13.3823464731        5.6316674631      -15.1005924616
 H       -12.5213130534        7.0415162124      -15.4737272924
 H       -13.5960431516        7.0462434250      -14.0729277816
 H        -5.9348932087        2.2289833255      -13.9360519702
 H        -6.9255631723        3.4941809886      -14.5573626171
 H        -6.3759731498        2.2202413446      -15.5620655918
 H        -6.9172239767       -0.1946068160      -15.1492285475
 H        -8.0624387521        0.6658688587      -16.1672509284
 H        -8.6419301613       -0.4503713386      -14.7683281400
 H       -11.9204554814        0.6587469943       -9.5467181576
 H       -11.1738102400        0.5726917870       -7.9735997535
 H       -11.8125098659       -0.8962533451       -8.8283656954
 H        -9.0947108549       -1.7287480342       -8.2625684270
 H        -8.3690500408       -0.0801231031       -7.9990050182
 H        -8.0067315849       -1.2139481909       -9.4616335231
 H       -12.4182373054       -4.9238676939      -14.7612154740
 H       -11.3080692762       -5.2960792820      -15.9945359321
 H       -11.3875813606       -3.6111078833      -15.2129285564
 H       -11.3973155633       -6.9474969292      -13.2820931070
 H        -9.5510416575       -7.0746377240      -13.1037163524
 H       -10.2871701314       -7.3308801657      -14.6950032647
 H        -4.8525996678       -4.7044691570      -15.7925711054
 H        -3.0948516766       -4.3970009878      -15.6802180888
 H        -4.2431044916       -3.2260684342      -14.9976698357
 H        -2.0214892759       -6.0929119985      -13.8063161587
 H        -3.2801692168       -6.8525073351      -14.6761593733
 H        -3.3498838528       -6.9795469652      -12.9808593198
 H        -0.8038661649       -7.2949433327       -9.1349863032
 H        -2.2882529002       -6.6631550712       -8.3421792577
 H        -0.9411816627       -6.8621591111       -7.2912511758
 H        -1.9170969239       -3.2493212913       -8.5673287935
 H        -2.0335593690       -4.2299322740       -7.2357296802
 H        -2.9176132162       -4.7281145291       -8.6661856989
 H         5.2398050725       -5.5578029260       -5.5760949350
 H         4.2304743488       -4.0665069470       -5.7487007047
 H         6.0222121766       -4.0045712391       -5.3025318761
 H         5.7511841278       -2.1805055362       -7.2254881922
 H         4.1559729895       -2.4482930901       -8.1259138918
 H         5.7851582119       -2.5803074647       -8.9035559474
 H        10.0300447426       -1.4529639672      -10.4495257077
 H        11.7605430167       -1.8645405690      -10.9262220334
 H        11.2231281631       -2.0360678029       -9.3372605689
 H        10.6450175477       -3.6416995768      -12.8481274834
 H        11.6144627991       -5.0420274800      -12.1826865723
 H        12.2609899954       -3.4131443620      -12.0387525234
 H        16.1103090873       -5.0139635391       -6.8273935563
 H        15.9102329948       -4.6561608946       -5.1032588872
 H        14.9370806954       -3.6708772322       -6.1731051242
 H        15.4510775253       -7.4421908891       -5.2930779653
 H        15.4523595755       -7.3130806734       -7.1635751194
 H        13.9798969915       -7.7383468520       -6.1080475061
 H         9.2699327342       -4.1701490185       -1.4984773503
 H        10.9815277655       -4.4015454332       -1.4461908544
 H         9.8913598008       -5.7092614671       -1.0481677302
 H         8.6131987284       -6.8946880099       -3.4072072640
 H         8.4127911891       -5.8835220401       -4.6566651070
 H         7.8230454596       -5.3952004130       -3.0286190722
 Na       10.1899120199       -5.5415463669       -6.8493476590
 Na      -11.5932159580        1.8998060820      -11.6395033672
