232

 C        10.3326600837       -2.4680087635       -3.4171487875
 C        10.0662565340       -3.8512612379       -4.1478085180
 O        10.1065578809       -3.7946758999       -5.3443536285
 C         9.9178846782       -5.1289698178       -3.3468508654
 C        11.0347279865       -6.1545191729       -3.7663590946
 O        10.8697658154       -6.7061241960       -4.8149963875
 C        12.1449465789       -6.6245065928       -2.8781568791
 C        13.5419422728       -6.6970737982       -3.5678918189
 C        13.5705804253       -5.5767578928       -4.6591625509
 O        13.1612814776       -4.5359961194       -4.2489514614
 C        14.3086342492       -5.7613429364       -6.0261877338
 C        13.1950494400       -5.6041852590       -7.1344703726
 O        12.4257366646       -6.4812374532       -7.3266304271
 C        13.2582735364       -4.3234267795       -8.0284796255
 C        12.6741603788       -4.6969665208       -9.4431397103
 C        11.1259748087       -4.3866404509       -9.4898605454
 O        10.4347287914       -4.5219395596       -8.5291468456
 C        10.6482081273       -3.6101695368      -10.7250500282
 C         9.0748026105       -3.9803915626      -10.9685870557
 O         8.5814290982       -4.6371241581      -11.8432368573
 C         8.1178689001       -3.4371806320       -9.8731911235
 C         7.1034318974       -4.6120597300       -9.5843244766
 C         6.8725587006       -4.7492307443       -8.0423396902
 O         7.6633416546       -5.1400923936       -7.2487923005
 C         5.4316234297       -4.3173026050       -7.5826044968
 C         4.2224357093       -5.0308145615       -8.2552279753
 O         4.3955694507       -5.5145520984       -9.3892192852
 C         2.9213524117       -5.0228751581       -7.5192515097
 C         1.8308465617       -5.3186482280       -8.5410987345
 C         0.4790738482       -4.6073421305       -8.2449589038
 O         0.3755861926       -3.5619911260       -7.6355421940
 C        -0.8877513633       -5.2790081634       -8.8664510002
 C        -0.6452738107       -5.2517646526      -10.3768130175
 O         0.0128614084       -6.1785512903      -10.8416211819
 C        -1.3583725158       -4.1789160874      -11.2121399711
 C        -2.9644060779       -4.4194615286      -11.2613993575
 C        -3.4737710545       -3.8746534172      -12.6425691633
 O        -4.0391816996       -2.8104114896      -12.7588447847
 C        -3.9703507146       -5.0356594984      -13.7672224533
 C        -5.3925239036       -5.2879395671      -13.2769649604
 O        -5.5981329679       -6.2462683441      -12.5651099704
 C        -6.5756741709       -4.4634995962      -13.7665488879
 C        -7.6897726707       -5.3170927059      -14.4228233238
 C        -9.0383976008       -4.6273262558      -14.7866442209
 O        -9.1068422454       -3.5855118998      -15.4277154466
 C       -10.3326797554       -5.1911583608      -14.0817668011
 C       -10.3885866570       -4.4359848498      -12.6630097178
 O       -10.1637525497       -5.0780712130      -11.6358651888
 C       -10.4183354794       -2.8620753467      -12.6648105863
 C       -10.0747309443       -2.2577313775      -11.2829004356
 C       -10.5092648343       -0.8102445022      -11.0374925314
 O       -11.3338786599       -0.2796410141      -11.7508404184
 C        -9.9282182420       -0.1689074384       -9.7891954129
 C        -9.2891465238        1.2309125052      -10.1613982387
 O        -9.9841314944        2.2117578078      -10.3418616230
 C        -7.8293647612        1.5346592934      -10.2651117121
 C        -7.4351673445        2.1214297598      -11.5978322661
 C        -7.6804258590        0.9979976746      -12.6707115118
 O        -7.8365858113       -0.1227045955      -12.3217766606
 C        -7.8521548502        1.5064957041      -14.2142557849
 C        -9.2682844443        2.1429847879      -14.3333044945
 O       -10.1809597277        1.7734126792      -13.6175771075
 C        -9.5818556454        3.2415892552      -15.4589870134
 C       -10.8445981338        4.1645499207      -15.3682053042
 C       -10.5218664599        5.4346707894      -14.5303541033
 O        -9.4555356785        6.0038268102      -14.6391220641
 C       -11.6598418667        5.9657109568      -13.6492469593
 C       -11.9907246074        4.7698828949      -12.7310481571
 O       -11.0644946653        4.1221584135      -12.3342748609
 C       -13.3995205365        4.2773740658      -12.4188275176
 C       -13.6090319557        4.1710509509      -10.8762566878
 C       -14.1210315309        2.9292950818      -10.3481658346
 O       -13.4817667962        1.9093468171      -10.3753490788
 C       -15.6027208580        2.9283425012       -9.8460331153
 C       -15.7764164001        4.0384349739       -8.7999897352
 O       -14.9696869214        4.9044684098       -8.5008907645
 C       -17.1131934570        4.0937022607       -7.9055910660
 C       -17.8157995768        5.4577490684       -7.8834719011
 C       -19.3533778431        5.3047069314       -8.2773388284
 O       -19.8361864819        4.2554879470       -8.5822999365
 C       -20.1090465277        6.6788652257       -8.5540350474
 C       -19.1248204728        7.5537053526       -9.4364491981
 O       -18.6374087384        7.0512838365      -10.3809781995
 C       -18.9001867709        9.0322054256       -9.0534742218
 C       -21.3842125233        6.3442057225       -9.3794804874
 C       -20.5864644775        7.4080567192       -7.2208875930
 C       -16.6610283191        3.4276108630      -10.9223852592
 C       -16.0502750188        1.5008322829       -9.5100566010
 C       -11.0745889025        7.1678077001      -12.8703965086
 C       -12.8648660028        6.2828518863      -14.5346743813
 C        -6.7967266083        2.5439883085      -14.6871539600
 C        -7.8081730317        0.2929218140      -15.1388805589
 C       -11.1813491093        0.0334318035       -8.8702016230
 C        -8.9598474366       -0.9412964726       -8.8871859866
 C       -11.6258827484       -4.9158885056      -14.8628119238
 C       -10.3569757998       -6.6644614521      -13.7672731228
 C        -4.0322398590       -4.3880709252      -15.1995537803
 C        -3.1753329152       -6.3629625748      -13.8300951281
 C        -0.9967335405       -6.7610871033       -8.3501983108
 C        -1.9870319213       -4.3334160993       -8.3460814466
 C         5.4141619699       -4.4015919763       -6.0437339753
 C         5.2305182558       -2.8724173026       -8.0819302457
 C        10.5788390454       -2.1208641235      -10.3364196289
 C        11.4173038819       -3.9461358801      -12.0216367430
 C        15.4564195858       -4.5807320105       -6.1366951256
 C        14.9849808982       -7.1188198930       -6.2142087827
 C        10.0212496338       -4.8822042432       -1.7713811313
 C         8.6060826971       -5.8801636107       -3.6934164127
 H        11.3420219385       -2.3134177142       -3.3073001165
 H         9.9458339534       -2.4275083777       -2.4004060974
 H         9.9908447205       -1.6281991748       -3.9427483860
 H        11.9481373907       -7.6496404062       -2.5888393396
 H        12.3005434533       -6.0736030170       -1.9230220342
 H        13.6082044651       -7.7761015217       -3.9228523777
 H        14.3624960856       -6.5028983559       -2.7983753187
 H        14.2883110194       -4.0443015054       -8.2524093978
 H        12.6689410990       -3.5772179034       -7.4261111202
 H        12.7439060839       -5.8039096516       -9.4301900975
 H        13.1305460376       -4.1603213756      -10.2573796018
 H         7.5960393552       -2.5430248160      -10.0555508885
 H         8.6861480370       -3.2075199634       -9.0023806346
 H         7.5601634086       -5.4316874771      -10.0973661086
 H         6.1456437254       -4.3881583973       -9.8711095996
 H         2.8774268759       -4.0098329356       -7.1294921040
 H         3.0169881053       -5.8012707005       -6.7481884970
 H         1.6390302223       -6.4087601862       -8.6818561363
 H         2.1499032328       -5.1429283158       -9.5570039028
 H        -1.0199458314       -4.2127431941      -12.3008492802
 H        -1.1487210214       -3.1728120206      -10.9281283366
 H        -3.3650511028       -3.7855012224      -10.4884036035
 H        -3.3475736162       -5.4691923126      -10.9112929401
 H        -6.1800560858       -3.8031568978      -14.5070676658
 H        -7.0967400412       -3.9278748873      -12.9594479387
 H        -7.8899576740       -6.2000792163      -13.7369067411
 H        -7.3052047500       -5.7757220590      -15.4330142451
 H       -11.3906373860       -2.4849237627      -13.0944917454
 H        -9.6535370633       -2.5182001357      -13.3700456551
 H        -9.0190473498       -2.1016909397      -11.2229256639
 H       -10.1074518191       -2.9848531776      -10.3940621768
 H        -7.2186778835        0.6586697530      -10.3069451941
 H        -7.6316586925        2.0894584844       -9.3217433343
 H        -6.4044232424        2.3968115998      -11.7174942876
 H        -7.9615650355        3.1337225781      -11.8260931303
 H        -9.5488449002        2.7354784578      -16.3774834622
 H        -8.7823339819        3.9773084272      -15.5049225214
 H       -11.7511629699        3.6574767897      -15.1027570266
 H       -10.9575085486        4.5635549528      -16.3726387090
 H       -13.5511209747        3.3228449714      -12.8774354495
 H       -14.1780006677        4.8862055304      -12.8895805492
 H       -14.2120830145        4.9661396941      -10.4978037102
 H       -12.6401893083        4.3086371084      -10.4412279100
 H       -16.7764850073        3.9175977626       -6.8788763997
 H       -17.7778304561        3.2931984376       -8.1778091483
 H       -17.3327111800        6.3459175977       -8.4053784825
 H       -17.8576680397        5.8216947522       -6.8480802200
 H       -17.9618153454        9.0689665636       -8.4053982027
 H       -19.6965566682        9.5492747999       -8.5306878712
 H       -18.5084064850        9.4807564296       -9.9934974209
 H       -22.1769115043        7.1245182201       -9.2821449976
 H       -21.8514632385        5.4123577917       -8.9549962051
 H       -21.2169100362        6.0924120967      -10.3823754339
 H       -19.7355336836        8.1084847381       -6.8514797776
 H       -20.8379056207        6.6744555690       -6.5102245301
 H       -21.4279127851        8.1316329036       -7.4986635841
 H       -17.5933194174        3.7470113882      -10.4975742831
 H       -16.9552967569        2.6939570318      -11.6136505469
 H       -16.2335602445        4.1838690245      -11.5273526117
 H       -17.1173819573        1.5210242985       -9.4526168222
 H       -15.6925872761        1.1045430873       -8.5420165266
 H       -15.6764203082        0.8852615759      -10.3085001454
 H       -10.1663044185        7.5328503655      -13.3419131369
 H       -10.7114399009        6.9663573904      -11.8509272555
 H       -11.8879576801        7.8834414283      -12.6999824072
 H       -13.2612203653        5.4089191244      -15.0705992948
 H       -12.5566328006        6.9970872900      -15.3510208429
 H       -13.7180528240        6.7846700517      -14.0344885630
 H        -5.8238001270        2.0625806883      -14.2818666039
 H        -6.9445697828        3.4464460867      -14.2772249864
 H        -6.8075695571        2.6314533437      -15.7713318075
 H        -6.7285416727        0.0982016101      -15.2228044804
 H        -8.0142671505        0.6795389371      -16.1715975491
 H        -8.3239959590       -0.5912759304      -14.8374041393
 H       -12.0585324083        0.3213092514       -9.4577594333
 H       -10.9366318371        0.8840810682       -8.1252758232
 H       -11.4938318586       -0.8510307948       -8.3225444030
 H        -9.4979258275       -1.7837373069       -8.4169206650
 H        -8.6151765013       -0.2716617028       -8.0748804448
 H        -8.1033744742       -1.4214160695       -9.3658597907
 H       -12.5130292637       -4.9370155390      -14.1909997030
 H       -11.8403289761       -5.7242791313      -15.5749782864
 H       -11.5161793421       -3.9187795893      -15.3397396180
 H       -11.2810565663       -6.8180561757      -13.1957934126
 H        -9.4220278796       -6.9700142494      -13.2095758462
 H       -10.3969126466       -7.2529763414      -14.6616422243
 H        -4.7273113592       -4.9513851290      -15.8449151301
 H        -3.0859276824       -4.5941985237      -15.5839580346
 H        -4.1907724678       -3.3120952279      -15.2724316823
 H        -2.1004925810       -6.3656235341      -14.0885654046
 H        -3.5454350135       -7.0020155149      -14.6243039671
 H        -3.4347100509       -6.9069204766      -12.9918138235
 H        -0.5087844173       -7.2670705649       -9.0917849974
 H        -2.0575938314       -6.9635722625       -8.3834026035
 H        -0.6640578932       -6.9465553329       -7.3001239645
 H        -1.8624533510       -3.2753016694       -8.5555121041
 H        -1.9542902501       -4.2483600205       -7.2700517053
 H        -2.9568366764       -4.7389396585       -8.6759045670
 H         5.7463487407       -5.3901189667       -5.7451427856
 H         4.3998186683       -4.2268735488       -5.5341527580
 H         6.1762100064       -3.6879511842       -5.6228225678
 H         5.9865356593       -2.1600645923       -7.7761613351
 H         4.2421882173       -2.5849002540       -7.7768929516
 H         5.2150709998       -2.9105820194       -9.1520860191
 H         9.6522576406       -1.6324484981      -10.6628986612
 H        11.5398934178       -1.6197779106      -10.6485957106
 H        10.5803048189       -1.9547713418       -9.2757550187
 H        10.8323500449       -3.4541206780      -12.8567568317
 H        11.4485089584       -5.0430341820      -12.1296711616
 H        12.4599940485       -3.6401257711      -11.8795795237
 H        15.9034381135       -4.4657142785       -7.1071044483
 H        16.2529886170       -4.9615885796       -5.4566098053
 H        15.0625730627       -3.6858352927       -5.6139916291
 H        15.5342809675       -7.3941811720       -5.3082110651
 H        15.7047350715       -7.0586487157       -7.0880906144
 H        14.1696550620       -7.8586553663       -6.3256968826
 H         9.3836480718       -4.0688743889       -1.4056074206
 H        11.0695384596       -4.6017377391       -1.5432236045
 H         9.8607751995       -5.7139315108       -1.1241014633
 H         8.7213628541       -6.9156168428       -3.4992375505
 H         8.3845557452       -5.9230636848       -4.7617462282
 H         7.7240307129       -5.4995860469       -3.1287388903
 Na       10.1036618131       -5.5972309492       -6.7506943745
 Na      -11.6233942387        2.0434968612      -11.7813092206
