232

 C        10.3499754900       -2.4533596556       -3.3596029322
 C        10.0788397255       -3.7758809523       -4.1197781226
 O        10.0733823282       -3.7500084093       -5.3693183967
 C         9.9064236289       -5.1218325035       -3.3429282684
 C        10.9719439364       -6.2050322856       -3.7651286684
 O        10.8173964385       -6.7759176477       -4.8427492132
 C        12.1563804219       -6.6571057085       -2.8656868227
 C        13.4945060161       -6.8332030290       -3.7772303126
 C        13.6577198667       -5.5727461922       -4.5641524214
 O        13.2240429380       -4.4585777009       -4.3235685568
 C        14.3833897894       -5.8201037662       -6.0020325028
 C        13.2744117747       -5.5893039009       -7.1282356539
 O        12.4224781586       -6.4469989935       -7.2282528384
 C        13.3160069594       -4.4180797402       -8.0938850768
 C        12.6180068098       -4.6636995746       -9.4366668474
 C        11.1486726830       -4.1934370466       -9.4736577997
 O        10.3728250201       -4.3558695667       -8.5293875789
 C        10.5633940369       -3.5340685788      -10.7620197369
 C         9.1213106564       -3.9782907083      -10.9388515206
 O         8.7492132310       -4.5958612278      -11.9273632937
 C         8.1255110890       -3.4685094464       -9.9217550243
 C         7.1317514842       -4.6928550989       -9.6509358784
 C         6.8372869149       -4.7969241766       -8.1774435161
 O         7.7384717563       -5.3180968356       -7.5006075994
 C         5.5062749782       -4.2409875309       -7.5936817261
 C         4.2599028014       -5.0825210446       -8.2422238074
 O         4.3448700012       -5.5473886542       -9.3612615241
 C         2.8352395951       -5.0333986809       -7.6142666835
 C         1.6996630724       -5.2792310016       -8.5873337597
 C         0.3790086567       -4.5958219128       -8.1462518164
 O         0.4098795147       -3.6871295637       -7.3352560314
 C        -0.8418047433       -5.2932186202       -8.7571239493
 C        -0.7590875486       -5.3065400257      -10.3727898569
 O         0.0112243938       -6.0435572979      -10.9154945071
 C        -1.4335349955       -4.2070874830      -11.1860117133
 C        -3.0086459834       -4.4458953735      -11.3729213101
 C        -3.6523244465       -3.9483830706      -12.6460330469
 O        -3.9521123439       -2.7429477105      -12.7928374123
 C        -3.8851054216       -4.9997758220      -13.8041813399
 C        -5.3831480175       -5.3709681750      -13.3629596053
 O        -5.4686686133       -6.2370503764      -12.4970064154
 C        -6.6271935502       -4.4450834917      -13.7408064885
 C        -7.7137190647       -5.3525813539      -14.4345281294
 C        -9.0530221667       -4.6037995683      -14.6996576684
 O        -9.0799312229       -3.6583698957      -15.4202023009
 C       -10.3797199710       -5.1704669975      -14.0165894661
 C       -10.2981711773       -4.4299604740      -12.6705254818
 O       -10.2156917372       -5.1167778010      -11.6599730175
 C       -10.3988967581       -2.9049619636      -12.6469101742
 C       -10.0045280132       -2.2993184835      -11.3015600138
 C       -10.4799463737       -0.8199335754      -11.0440434807
 O       -11.3548072656       -0.3198613676      -11.7076440131
 C        -9.9850598046       -0.0681067334       -9.6779911549
 C        -9.2955189210        1.3306556734      -10.1211494170
 O        -9.9774170824        2.2744748233      -10.4092177021
 C        -7.6684333002        1.5701557634      -10.2389284775
 C        -7.4276908856        2.1758561568      -11.6283985643
 C        -7.7157397551        1.2014294549      -12.8102686593
 O        -7.7714458737        0.0586458122      -12.3925703363
 C        -7.8380637085        1.5667981028      -14.3506863011
 C        -9.3340591058        2.1836466693      -14.5029125603
 O       -10.2083260293        1.8842397919      -13.6872999512
 C        -9.6355302782        3.1664132050      -15.6817762269
 C       -10.7144625184        4.0635939455      -15.3688579632
 C       -10.4110115954        5.4078787960      -14.5681029084
 O        -9.3879421625        5.9913052398      -14.6410387993
 C       -11.6542069717        5.8961481502      -13.6385487513
 C       -12.0422571382        4.7118230172      -12.7797200619
 O       -11.0525722909        3.9965986925      -12.5085193370
 C       -13.3846860161        4.2225187999      -12.3655418143
 C       -13.6098335380        4.3165438946      -10.8208632623
 C       -14.1858156871        2.9674490630      -10.4194984349
 O       -13.4756530218        1.9695149168      -10.3112788221
 C       -15.7061859213        2.8942824773       -9.9185878366
 C       -15.8347278613        3.9679810433       -8.6517461455
 O       -14.9648042749        4.7739977289       -8.5276627407
 C       -17.1959524387        3.9457135678       -7.7950684708
 C       -17.7904054456        5.4014091053       -7.7391499424
 C       -19.3014482483        5.3606298019       -8.1504175629
 O       -19.7945943393        4.2829144568       -8.3250834805
 C       -20.1006428087        6.6579284240       -8.4820983686
 C       -19.1343378899        7.6140728285       -9.3722312194
 O       -18.6179246983        7.1065187925      -10.3224317951
 C       -18.8885285367        9.0461734233       -9.0374928229
 C       -21.3326987250        6.3301938420       -9.3775557359
 C       -20.6301517156        7.4076122851       -7.1457579401
 C       -16.6748124885        3.4796315002      -11.0156539118
 C       -16.0492427534        1.3951408146       -9.5150874904
 C       -11.0543123058        7.1360391767      -12.8369631103
 C       -12.9119433875        6.2606309276      -14.4706678212
 C        -6.7516231717        2.6102364093      -14.6267996524
 C        -7.7165362683        0.2255919467      -15.1627089158
 C       -11.1953300576        0.1857249833       -8.7344980110
 C        -9.0070042175       -1.1083940580       -9.0546126807
 C       -11.7598478745       -4.9239046118      -14.7074127852
 C       -10.2791996359       -6.7181346425      -13.7610564033
 C        -3.8216458271       -4.3978344611      -15.2228751461
 C        -3.2445411377       -6.3268935728      -13.7892505959
 C        -0.8359305022       -6.7532348071       -8.3072112799
 C        -2.0325039367       -4.4698019595       -8.2658249137
 C         5.5346230026       -4.2801671022       -6.0768229421
 C         5.2045740688       -2.7672313468       -8.0794640034
 C        10.5007869018       -2.0083816577      -10.4210076143
 C        11.3840210880       -3.8653130793      -12.0401372035
 C        15.5122855370       -4.6163849723       -6.1062529892
 C        15.0986280385       -7.1146833469       -6.2243938744
 C         9.9216559284       -4.9069905766       -1.8059064832
 C         8.5131851981       -5.7397497960       -3.6658834828
 H        11.4006151092       -2.2248651073       -3.3403155583
 H        10.0270802650       -2.5208478266       -2.3764027144
 H         9.9170749161       -1.6273709075       -3.7788959289
 H        11.8541533991       -7.6543178573       -2.4352358137
 H        12.4473445465       -6.0135059489       -2.0693074594
 H        13.3699647698       -7.6299439882       -4.4645592114
 H        14.4401307544       -7.0047699383       -3.1321298982
 H        14.3366724255       -4.2984081565       -8.4301999738
 H        12.8704924302       -3.5535285328       -7.4963908297
 H        12.6449826329       -5.6731598765       -9.6665899078
 H        13.0669279027       -3.9864073113      -10.1758635006
 H         7.5699530453       -2.5445621503      -10.2260201428
 H         8.6231566780       -3.1480030049       -9.0470907325
 H         7.7904994864       -5.4655678383       -9.9178361535
 H         6.1977589323       -4.6871045663      -10.1567244525
 H         2.6805028999       -4.0548325945       -7.1338832292
 H         2.9351522377       -5.8721465414       -6.8917283084
 H         1.5699453062       -6.3026903693       -8.9233206205
 H         1.9911341557       -4.8830434251       -9.5915821799
 H        -1.0727528090       -4.3224662509      -12.1193221142
 H        -1.0760821072       -3.1289540482      -10.9235162205
 H        -3.5235152479       -3.8324761501      -10.5858064748
 H        -3.2073791322       -5.4468747147      -11.0927171730
 H        -6.2333221101       -3.7249473456      -14.4337928109
 H        -7.1017221159       -4.0512537313      -12.9101611672
 H        -7.8273310584       -6.2092478351      -13.7702935807
 H        -7.3346524633       -5.7639780209      -15.4578647544
 H       -11.4959096566       -2.7799121417      -12.7198664470
 H        -9.9424496363       -2.3849909553      -13.5353659421
 H        -8.9561335547       -2.3993027640      -11.0344870071
 H       -10.4118581724       -2.9601759772      -10.5180606049
 H        -6.9930228142        0.6654008004      -10.1837029482
 H        -7.4760259279        2.2369756339       -9.3733076678
 H        -6.5291285990        2.7782827675      -11.8182452081
 H        -8.2251671641        2.9672256929      -11.6945840566
 H        -9.9478266869        2.6009632613      -16.5153462464
 H        -8.7142437150        3.7785319241      -16.0153823468
 H       -11.4068055512        3.4529602581      -14.8828312297
 H       -11.1407782282        4.3286662019      -16.3409185023
 H       -13.5366294440        3.2045669978      -12.6214992900
 H       -14.0615403244        4.7146738657      -12.9590592344
 H       -14.2341374794        5.1248618282      -10.4546874576
 H       -12.6585541983        4.4397356496      -10.3973707138
 H       -17.0680892785        3.5708080261       -6.7880102221
 H       -17.8304518755        3.2147281378       -8.3031391385
 H       -17.3044449191        6.1230170819       -8.3879185361
 H       -17.6710234651        5.8766787772       -6.7461813419
 H       -18.3398190809        9.2712709719       -8.1223971886
 H       -19.8868365698        9.5547623590       -8.9545323466
 H       -18.2359781352        9.3938725471       -9.8517839380
 H       -22.1897117864        6.9462823864       -9.1759470678
 H       -21.6779343393        5.3237649902       -9.1844590024
 H       -21.0987818370        6.3115638342      -10.4649316969
 H       -19.9975077897        8.2956988511       -6.9326982951
 H       -20.5771114410        6.6416719538       -6.3791987865
 H       -21.7214841070        7.8050328670       -7.2405231608
 H       -17.5905145931        3.8724165262      -10.6182302716
 H       -17.0212228054        2.6473243934      -11.6284560009
 H       -16.2051420459        4.1290498338      -11.7378396669
 H       -17.0118194370        1.2839882335       -9.0713889379
 H       -15.3548316182        1.1312529586       -8.6828383728
 H       -15.8676971125        0.7106033542      -10.3229877271
 H       -10.2499877696        7.5533374059      -13.5006369400
 H       -10.5080974911        6.9169142527      -11.9023909603
 H       -11.8037667274        7.8579528390      -12.4733777656
 H       -13.2362980531        5.4446309733      -15.1202839057
 H       -12.6271905323        7.1272907392      -15.1763161006
 H       -13.8007980573        6.6429425803      -13.9458567010
 H        -5.7939297766        2.0788496688      -14.7460305781
 H        -6.6822590071        3.3631693657      -13.7044332610
 H        -7.0717726475        3.2163123694      -15.5066430959
 H        -6.6972246931       -0.0110331994      -15.2430921973
 H        -8.0552634544        0.3952858362      -16.1495515746
 H        -8.2671346646       -0.6093414798      -14.6560854462
 H       -12.1648252595        0.3945857168       -9.2957313139
 H       -10.9517568499        1.0784139571       -8.1049804813
 H       -11.3716831068       -0.6357757866       -8.0782634695
 H        -9.5953483587       -2.0369130147       -8.9274925467
 H        -8.6183454337       -0.8535602979       -8.1398640508
 H        -8.1441132992       -1.3688492695       -9.6507198438
 H       -12.6269728834       -4.8180414072      -13.9306079076
 H       -12.0586426642       -5.8065282035      -15.2451465902
 H       -11.6928152955       -4.0461882407      -15.3684870732
 H       -11.1477538613       -7.0913677862      -13.3018036120
 H        -9.3733967684       -6.9128082616      -13.2080523503
 H       -10.1425570346       -7.2101935170      -14.7189124603
 H        -4.4010524301       -5.1038668799      -15.7943360383
 H        -2.8340682100       -4.4681241361      -15.6299365457
 H        -4.1949212555       -3.3933833691      -15.3470289262
 H        -2.2307463546       -6.2584357074      -14.2511782060
 H        -3.6833576955       -6.9829500916      -14.4465016448
 H        -3.2918746351       -6.7840311957      -12.8126736274
 H        -0.0968731515       -7.2697551268       -8.9058989895
 H        -1.8200787786       -7.1089201191       -8.5084400926
 H        -0.6354837558       -6.7684858302       -7.2518092257
 H        -2.0566034402       -3.4561688070       -8.6369512645
 H        -2.0305792771       -4.2249495771       -7.2199656108
 H        -2.9312066715       -5.0580709762       -8.6012329611
 H         5.9446474667       -5.2548510079       -5.7956045583
 H         4.6433547806       -4.1195870550       -5.5626812698
 H         6.2838962462       -3.4984951147       -5.7580385131
 H         6.0598842544       -2.0863788756       -8.2342628416
 H         4.5842115979       -2.4221048845       -7.3503216573
 H         4.6524959924       -2.8168428340       -9.0005561457
 H         9.8373691712       -1.4885824980      -11.1447022838
 H        11.4904597608       -1.6054635173      -10.3230065636
 H        10.0288193279       -1.7853240927       -9.4888180537
 H        11.0464166887       -3.3052698715      -12.9316223724
 H        11.3885338487       -4.9377251749      -12.1962749988
 H        12.4017669023       -3.6570246017      -11.6588579885
 H        15.7360551863       -4.2984770499       -7.0920151789
 H        16.4079765033       -4.9835639511       -5.6158536587
 H        15.1280559462       -3.8293736293       -5.4323264186
 H        15.7942237254       -7.3405265712       -5.3958294782
 H        15.7336358757       -6.9011714729       -7.0546700450
 H        14.4070812575       -7.9666089899       -6.3551458597
 H         8.9902280633       -4.3831944332       -1.4930226771
 H        10.7996986573       -4.4315360981       -1.4086689676
 H         9.9905353273       -5.8586978941       -1.2508639605
 H         8.4143760164       -6.8417635836       -3.4349931109
 H         8.4610190284       -5.7825472598       -4.7591437080
 H         7.6485446412       -5.1920702876       -3.3097212440
 Na        9.9319667029       -5.7679655122       -6.5583946460
 Na      -11.7241356074        2.0812126165      -11.8888683162
