232

 C        10.4483872947       -2.5744250561       -3.2990339061
 C        10.1236404823       -3.7969818494       -4.0663955467
 O        10.0293411540       -3.9332484034       -5.2358673610
 C         9.7737203062       -5.1368105836       -3.2431688540
 C        10.8296894875       -6.2850153161       -3.7413092823
 O        10.5531126530       -6.8646889799       -4.7592972781
 C        12.1812465917       -6.4767513848       -3.0335009434
 C        13.2325557042       -6.9343166720       -4.0164486343
 C        13.6794864429       -5.6465396304       -4.7885789425
 O        13.3944590696       -4.5806326870       -4.3151848148
 C        14.5720484917       -5.7406362374       -6.0982609664
 C        13.3734388392       -5.5654231265       -7.0610979216
 O        12.4122637866       -6.2804190773       -6.9207482408
 C        13.4362922198       -4.4253334003       -8.1415159008
 C        12.5749423017       -4.6398234763       -9.4599109488
 C        11.1021749609       -3.9707649810       -9.4447909065
 O        10.4503627119       -4.0653353200       -8.4612960880
 C        10.5661737244       -3.1949950325      -10.8352705861
 C         9.1540287840       -3.9139031086      -11.1192595108
 O         9.0722078337       -4.5918113229      -12.1006931636
 C         7.9026509082       -3.6263225695      -10.2308476626
 C         6.9791436139       -4.8264446596       -9.8814090622
 C         6.7865511444       -4.9697885049       -8.3371462109
 O         7.4738527001       -5.5919124651       -7.5640430932
 C         5.5453004577       -4.1937049349       -7.6926821174
 C         4.2958153917       -4.9716511815       -8.2413861089
 O         4.4590730987       -5.7395751308       -9.1860576411
 C         2.9570707543       -4.9276350634       -7.5410920448
 C         1.8150312752       -4.9426942267       -8.6391481595
 C         0.4178144653       -4.6809837681       -8.0519827963
 O         0.2881280595       -4.1352571508       -6.9754005339
 C        -0.9014229595       -5.3125068047       -8.6772624563
 C        -0.8484282106       -5.2162128062      -10.2127454191
 O        -0.0167581320       -5.8886866132      -10.8044962181
 C        -1.6377787367       -4.1955565042      -11.1397634571
 C        -3.1644076704       -4.4811725838      -11.2509554770
 C        -3.6177766748       -3.9724126963      -12.6774503925
 O        -3.6640748889       -2.8244828006      -13.0150170378
 C        -3.9068077792       -4.9853917030      -13.8388246487
 C        -5.4998535363       -5.3605729922      -13.3855837474
 O        -5.6698305274       -6.1640539931      -12.4998108038
 C        -6.6642597967       -4.5705793388      -13.9159345640
 C        -7.6836704865       -5.4677979842      -14.5768949903
 C        -9.0246595912       -4.7520383607      -14.6390699954
 O        -9.1631613023       -3.7776381520      -15.3725308098
 C       -10.3269065331       -5.2359637816      -13.7743421328
 C       -10.3191481936       -4.4881373899      -12.5121626587
 O       -10.1997126922       -4.9465017633      -11.3809742525
 C       -10.6567721642       -2.9384850485      -12.5579265402
 C       -10.0286866380       -2.2528824705      -11.3168532443
 C       -10.4526886974       -0.8702239572      -10.9959274659
 O       -11.2719667413       -0.2825417657      -11.6802946000
 C        -9.8112029961       -0.1336497586       -9.8001485355
 C        -9.2307733226        1.2821106058      -10.2949487938
 O       -10.1115735678        2.1434442153      -10.3287231158
 C        -7.7438094273        1.4892267780      -10.3401140332
 C        -7.5902418182        2.2271608531      -11.7188190517
 C        -7.6898013467        1.2240884825      -12.8297875384
 O        -7.8213302318        0.0715907019      -12.5211283496
 C        -7.8107370233        1.8217828323      -14.3716724104
 C        -9.2682594920        2.2946713052      -14.6333528707
 O       -10.1700578722        1.8139997734      -13.9761423715
 C        -9.5877376183        3.1092350739      -15.9446122654
 C       -10.8736877884        4.1506460779      -15.7371685925
 C       -10.4269841504        5.2340943916      -14.7997436782
 O        -9.3163004767        5.6966579336      -14.7577030737
 C       -11.6325402716        5.8184604746      -13.8061460352
 C       -11.8961988480        4.6719213717      -12.8879547907
 O       -11.0331827693        4.0528322880      -12.3760067383
 C       -13.3518929120        4.3452123577      -12.4204772765
 C       -13.6636124551        4.3910323032      -10.9309009156
 C       -14.3284502742        3.0401905068      -10.4267451935
 O       -13.6645441391        2.0346708321      -10.4640864219
 C       -15.7417106778        2.9694751596       -9.8885277556
 C       -15.9583137134        3.9065947151       -8.5352954759
 O       -15.0300441569        4.5832634913       -8.1731040004
 C       -17.2917909280        3.8442505911       -7.7340725922
 C       -17.8350096431        5.2502780181       -7.5643161730
 C       -19.2928185048        5.3204960470       -7.9628602223
 O       -19.9740966074        4.3536788664       -7.7864566493
 C       -19.9491645951        6.5999042513       -8.3600843384
 C       -19.0176124184        7.6059424036       -9.1571760582
 O       -18.5008317715        7.2483862441      -10.2157621140
 C       -19.0127547599        9.1087437652       -8.9535511537
 C       -21.1553980425        6.2677676905       -9.3298237955
 C       -20.4483909980        7.1829206739       -7.0163186568
 C       -16.7199277537        3.3716056577      -11.1048394442
 C       -16.0996866942        1.5277019402       -9.4261016942
 C       -11.2276659827        6.9318632529      -12.7665268646
 C       -12.7478350292        6.5054204488      -14.6323276111
 C        -6.5372649950        2.8017908682      -14.6995045502
 C        -7.6317019434        0.5415155878      -15.2654972802
 C       -10.9223452581        0.2844143838       -8.8000172946
 C        -8.7775728147       -0.8401044908       -8.8969746611
 C       -11.5027158809       -4.7537211886      -14.6634993923
 C       -10.3220408151       -6.7342558378      -13.6775415150
 C        -3.7899587347       -4.2918378262      -15.1657058037
 C        -2.9197537946       -6.2122467269      -13.7668835773
 C        -0.9086021819       -6.7884458149       -8.2658297310
 C        -2.2111836573       -4.7811532115       -8.1408242003
 C         5.6855159863       -4.3132042087       -6.1978763188
 C         5.3742986749       -2.7529332468       -8.1850297067
 C        10.7077178920       -1.6165740189      -10.6969843336
 C        11.4992645907       -3.5293784567      -12.0066831882
 C        15.5948022230       -4.6226521843       -6.0397098581
 C        15.2835604017       -7.1810041779       -6.2231260787
 C         9.8938689775       -5.0701668465       -1.6988107440
 C         8.3307028323       -5.4071466773       -3.7421889678
 H        11.5425740276       -2.5321346794       -3.0807905959
 H         9.8314220238       -2.3274042805       -2.3198262455
 H        10.3401137777       -1.6642968976       -3.9875150566
 H        12.0484057940       -7.2257480021       -2.2851897029
 H        12.5889419004       -5.5260065765       -2.5776758289
 H        12.6277143925       -7.5921791625       -4.6937599087
 H        14.0023059876       -7.3850768389       -3.4830122615
 H        14.4510579352       -4.3789097199       -8.5327802091
 H        13.0798928583       -3.5678648523       -7.6703821291
 H        12.2701640192       -5.7307737853       -9.5970286100
 H        13.0448205918       -4.2430651788      -10.3267890579
 H         7.2497578437       -2.8945217488      -10.7203253891
 H         8.2226641100       -3.0453714178       -9.2823510800
 H         7.5806103860       -5.7930383571      -10.0831289508
 H         6.0102675718       -4.7581375585      -10.4682521765
 H         2.9382411484       -3.9576326722       -7.0403069473
 H         2.9069337269       -5.7862602555       -6.8751008732
 H         1.7411696697       -5.8736902240       -9.2205571332
 H         2.0382511166       -4.2787261911       -9.4581900748
 H        -1.2245916864       -4.0237759651      -12.2419267617
 H        -1.5349769903       -3.2725069224      -10.7159386930
 H        -3.7399751188       -3.9369552136      -10.4880541569
 H        -3.2415884302       -5.6331018616      -11.2367921406
 H        -6.4628436154       -3.7038865676      -14.5566479684
 H        -7.1328587767       -4.3234427427      -12.9090362144
 H        -7.7657721102       -6.3719980717      -14.0218155131
 H        -7.3250755738       -5.6229836600      -15.5459601524
 H       -11.7610214540       -2.8746771854      -12.5428279598
 H       -10.2346747538       -2.4355234118      -13.3796007991
 H        -8.9366910928       -2.2755790524      -11.3090027610
 H       -10.1898077066       -2.8904779627      -10.4466223687
 H        -7.1532692225        0.6276560360      -10.1684103666
 H        -7.4843258044        2.2992709170       -9.6457547494
 H        -6.7158089770        2.8538316045      -11.7024750474
 H        -8.3426914129        2.9938842595      -11.8309232514
 H        -9.8581776288        2.3410553678      -16.7657887064
 H        -8.7511841107        3.6929967759      -16.2560708545
 H       -11.7894282925        3.5740381234      -15.3491407676
 H       -11.0993823298        4.6316186355      -16.7026899148
 H       -13.5896151066        3.2908883349      -12.7459732731
 H       -14.1797433611        4.9140021691      -13.0219196537
 H       -14.4255870425        5.1815855850      -10.9006151235
 H       -12.7956121033        4.7858427292      -10.2985106434
 H       -17.0378175649        3.4404503709       -6.7138543239
 H       -18.0539495115        3.1040537982       -8.0532947265
 H       -17.2788336909        6.0094151709       -8.1227516063
 H       -17.8073423809        5.6526605603       -6.5819071924
 H       -19.1885603427        9.5012185590       -7.9467015108
 H       -19.7878560616        9.4550988441       -9.5691417783
 H       -18.0442335114        9.4566882916       -9.2564814134
 H       -21.8958394584        7.0617145508       -9.4968028115
 H       -21.7916925531        5.5055243419       -8.8441267980
 H       -20.8166084575        5.8963446515      -10.2457586643
 H       -19.8162608826        7.9725757042       -6.6359018204
 H       -20.5669192145        6.3514453632       -6.3896660385
 H       -21.4545463773        7.5236166643       -7.1017392996
 H       -17.7922092786        3.2399510071      -10.7724905866
 H       -16.6027510761        2.7725860685      -12.0401750719
 H       -16.5361544680        4.4227857472      -11.4671821180
 H       -16.9916019069        1.5619075629       -8.7633924734
 H       -15.3694524503        0.9628516454       -8.8602785010
 H       -16.3773105205        0.9768870536      -10.3547992093
 H       -11.1964329406        7.8592556083      -13.3200200241
 H       -10.2101460633        6.7419745645      -12.3972753263
 H       -11.7449177185        7.0386042999      -11.7961924648
 H       -13.2106379632        5.7666137359      -15.2857349645
 H       -12.3494474669        7.3253355395      -15.1548725420
 H       -13.5619766781        6.9738881116      -14.1001513513
 H        -5.6125518929        2.1870811149      -14.6798835497
 H        -6.4689996712        3.4565398382      -13.9884158141
 H        -6.7362301975        3.3079794900      -15.6118825432
 H        -6.6964267943        0.0266252309      -14.9495273301
 H        -7.6138039627        0.8549505520      -16.3339152851
 H        -8.4684503756       -0.0571059624      -15.1285590548
 H       -11.6386203327        0.8832274839       -9.2639695443
 H       -10.4826218614        0.8144069859       -7.9479424106
 H       -11.4186981525       -0.6143800281       -8.3861665356
 H        -9.1081900333       -1.7480229345       -8.4347891392
 H        -8.5817474019       -0.0941654475       -8.0689517000
 H        -7.7672030189       -0.9969592493       -9.2306009087
 H       -12.4183827471       -4.8238947645      -14.2113964545
 H       -11.5831424419       -5.3592878329      -15.5874441777
 H       -11.2135633774       -3.7719102930      -14.9993616744
 H       -11.3315704568       -7.1506740979      -13.8212130185
 H        -9.9132695378       -7.0732177770      -12.7136129664
 H        -9.7419425395       -7.1133275423      -14.4753089722
 H        -3.7772408496       -5.0168147720      -16.0067960231
 H        -2.7757195252       -3.8686075814      -15.1167865916
 H        -4.4836271632       -3.4534926186      -15.2947771368
 H        -1.9325604412       -5.9371993620      -14.1599904922
 H        -3.1757511487       -6.9564124820      -14.6284720833
 H        -2.9457490022       -6.6929832264      -12.7856717660
 H         0.0502989072       -7.1623565069       -8.6011723799
 H        -1.7622593930       -7.3118898362       -8.7650582899
 H        -0.8890973443       -6.7382884570       -7.1445253118
 H        -2.4372213519       -3.7480498740       -8.3928958518
 H        -1.9834449528       -4.6427895456       -7.0766595724
 H        -3.0121850049       -5.4341708600       -8.3103193705
 H         5.6808200109       -5.3504978301       -5.9083392228
 H         4.7472028798       -3.8073618672       -5.7913416236
 H         6.4247895197       -3.6667681713       -5.8288297855
 H         6.3763573746       -2.4618641432       -8.4939432754
 H         5.1132006476       -2.1138799342       -7.2780147715
 H         4.7229321464       -2.6316469325       -9.0742051338
 H        10.8420787193       -1.1759727719      -11.6548145743
 H        11.5759616541       -1.4240724422      -10.0464445925
 H         9.8390054773       -1.1404586084      -10.2633605074
 H        10.8500978900       -3.3006981047      -12.8665937830
 H        11.5894258460       -4.6022421230      -11.9958683263
 H        12.4309004811       -3.0336517183      -12.1045743384
 H        16.2163820238       -4.9828044838       -6.8615200584
 H        16.0433382432       -4.6453862701       -5.0481419436
 H        15.2661779523       -3.6237460932       -6.2303430984
 H        16.0670717762       -7.2819449399       -5.5138755669
 H        15.8711800509       -7.2410117845       -7.1620890169
 H        14.5805544628       -7.9611761282       -6.1066293789
 H         9.0960404571       -4.5614682629       -1.2026439180
 H        10.8870462932       -4.7045660912       -1.3919919300
 H        10.0111248809       -6.0435672847       -1.2719805600
 H         7.8093466771       -6.0126290388       -3.0607867554
 H         8.1888074290       -5.8625728481       -4.7356326347
 H         7.7771479355       -4.4370830789       -3.8044145860
 Na        9.6370554796       -5.8190779848       -6.7005462010
 Na      -11.8593274027        1.7254790159      -11.8045971096
