232

 C        10.7102973811       -2.7048281050       -3.2634368029
 C        10.1526071888       -3.9208688719       -4.0075654681
 O        10.1327282655       -3.9278984986       -5.2566983190
 C         9.6291152824       -5.1937592005       -3.1600083607
 C        10.5083446672       -6.3737466877       -3.8607168063
 O        10.1338364760       -6.9371599933       -4.8876214918
 C        11.8663001369       -6.6327719418       -3.1172146003
 C        13.0321676799       -6.8442363432       -4.1733458428
 C        13.7000991110       -5.6179937709       -4.7510939734
 O        13.6812875779       -4.4919334480       -4.2205341774
 C        14.5100406747       -5.7132339724       -6.1739591737
 C        13.2584684325       -5.4648220744       -7.1293942273
 O        12.1994430317       -6.1167434010       -7.0255135838
 C        13.4090226639       -4.3887592918       -8.1869959547
 C        12.4717597961       -4.7067147903       -9.3810682833
 C        11.1224541152       -3.9181122405       -9.4937883868
 O        10.3768191850       -3.7294461110       -8.5153464346
 C        10.7255296237       -3.2223579333      -10.8230010722
 C         9.3557571250       -3.8673339872      -11.1675182106
 O         9.2304310689       -4.6158299180      -12.0995984302
 C         8.1415728722       -3.4215507960      -10.2733542762
 C         7.3919173362       -4.7426524330       -9.9422486743
 C         6.8742224524       -4.9716703834       -8.4816508720
 O         7.5054020542       -5.7551819789       -7.7395222917
 C         5.5574805940       -4.3298889990       -7.8911370233
 C         4.2563581502       -5.0688182187       -8.3640382159
 O         4.2749727176       -6.0456363438       -9.0137977560
 C         2.8840467545       -4.5630543648       -7.6765918872
 C         1.6834731234       -4.6830910462       -8.5574483886
 C         0.3142471785       -4.8088248442       -7.7843803137
 O         0.1442360947       -4.3978105867       -6.6591966939
 C        -0.9627341501       -5.4224863802       -8.6395543934
 C        -0.8773835325       -5.1838794743      -10.1780256122
 O        -0.0314929574       -5.8218476566      -10.7633741468
 C        -1.6650929702       -4.1037198338      -10.8258316403
 C        -3.1385694138       -4.4632393873      -11.1710573697
 C        -3.4187331434       -3.8812829788      -12.5868932825
 O        -3.3582676854       -2.7028589160      -12.8626754890
 C        -3.9427245915       -4.9200552176      -13.8070355510
 C        -5.3490665437       -5.3977669611      -13.4044738368
 O        -5.5670632314       -6.3344028708      -12.6538083828
 C        -6.5552754920       -4.7151949994      -14.0417447159
 C        -7.8009712971       -5.6820372192      -14.5075474556
 C        -9.0716270553       -4.7439489516      -14.6461163922
 O        -9.0461009290       -3.7137501691      -15.2769305613
 C       -10.4139679524       -5.2001101629      -13.7794993310
 C       -10.3467060632       -4.4163302570      -12.3960416454
 O       -10.0722230315       -5.1113377122      -11.4498277037
 C       -10.5701663734       -2.9713730403      -12.2474192224
 C        -9.7441514482       -2.3065364870      -11.0978190185
 C       -10.2701874387       -0.8977038323      -10.8044796420
 O       -11.1136871962       -0.4540685793      -11.5952459699
 C        -9.7369727324       -0.0560822049       -9.6503281377
 C        -9.2831677654        1.3850964110      -10.2015721082
 O       -10.0437554447        2.2879546069      -10.4868467950
 C        -7.7397780222        1.6762358527      -10.4817164885
 C        -7.5437698282        2.2602910239      -11.9338157712
 C        -7.8083695908        1.2816617349      -13.0368933197
 O        -7.9053112249        0.0712500230      -12.8048187049
 C        -7.9118593634        1.8666880834      -14.5315027233
 C        -9.3414104581        2.3073474677      -14.7415564645
 O       -10.2254801394        1.9521614306      -13.9887955666
 C        -9.4930380230        3.1660034038      -15.9452125724
 C       -10.6787919859        4.0660997991      -15.8384394384
 C       -10.4005471824        5.1708981282      -14.7230180982
 O        -9.2664458826        5.6769033404      -14.6909621176
 C       -11.5931851860        5.7688311116      -13.7915964126
 C       -12.2027853138        4.6729489949      -12.9512457949
 O       -11.3635449566        3.9565274036      -12.3248405510
 C       -13.5889066306        4.4179273176      -12.6709608114
 C       -13.8793203747        4.3576032177      -11.0812084477
 C       -14.4131526234        3.0631065265      -10.5291980800
 O       -13.8876832949        1.9557530690      -10.7275164695
 C       -15.7775283269        3.0172285225       -9.8152707337
 C       -15.8670720457        3.8595855294       -8.5125845193
 O       -14.9039755185        4.4833264594       -8.1050680493
 C       -17.2175227292        3.8111862062       -7.8285847499
 C       -17.8298650125        5.1539229497       -7.4877688908
 C       -19.3546545765        5.2935893295       -7.7426286534
 O       -20.0449958319        4.2995595067       -7.5208299534
 C       -20.0232464941        6.6592625412       -8.2464562111
 C       -19.0279043667        7.5349570832       -8.9522121265
 O       -18.2505534739        7.1393937889       -9.8388092777
 C       -19.1142276699        9.0428778578       -8.8053032096
 C       -21.2132983555        6.3433210448       -9.1771814743
 C       -20.4848872232        7.3069133179       -6.9602349960
 C       -16.8405363800        3.5336815506      -10.7204066822
 C       -16.0736526860        1.4890989416       -9.4555745627
 C       -10.7939915232        6.8694568848      -13.0795098995
 C       -12.6635835696        6.2550445216      -14.7975760215
 C        -6.8702062512        3.0561850695      -14.6584112840
 C        -7.5133158669        0.7449488275      -15.5796537591
 C       -11.0665287110       -0.0923682282       -8.7327232275
 C        -8.5827164687       -0.8100182659       -8.9616669944
 C       -11.5658258719       -4.8085051455      -14.6982677627
 C       -10.4438567416       -6.7612492295      -13.4183490815
 C        -3.8531070491       -4.2439703220      -15.2389149500
 C        -3.0506615082       -6.2249846057      -13.7413241264
 C        -0.9064099619       -7.0732858454       -8.3956530854
 C        -2.1865918567       -4.7572656283       -7.9498597844
 C         5.6135961413       -4.3218049872       -6.3155522133
 C         5.5880490139       -2.8480423325       -8.3064602143
 C        10.4698212215       -1.7141764123      -10.4883267077
 C        11.7589304077       -3.4498191276      -12.0048777833
 C        15.6177142324       -4.6233646125       -6.2515784416
 C        15.1476179877       -7.1299106937       -6.3502032747
 C         9.8536502678       -4.9406796768       -1.6793626464
 C         8.1296840685       -5.5390083713       -3.3723513811
 H        11.4620660671       -2.9747974880       -2.5507067450
 H         9.9667684089       -2.2432367897       -2.7619942284
 H        11.1835171473       -1.9453101262       -3.8412080658
 H        11.8547872158       -7.4993824124       -2.3964316544
 H        12.1395280968       -5.7097261563       -2.6515905790
 H        12.6680477018       -7.6000430699       -4.8613594088
 H        13.9065151937       -7.1583357857       -3.4696462052
 H        14.4181811576       -4.4614317656       -8.5803289550
 H        13.1168839663       -3.3948565441       -7.7173690948
 H        12.1192063750       -5.7182456680       -9.3617710929
 H        12.9668312164       -4.5246827971      -10.3769835014
 H         7.5159898046       -2.7589624236      -10.9113722371
 H         8.3137696256       -2.8964032568       -9.3989281092
 H         7.8855464232       -5.6467882775      -10.1130135089
 H         6.5332849620       -4.7106235116      -10.5834745827
 H         2.9702587008       -3.5608255446       -7.2440313755
 H         2.6850872573       -5.2885009581       -6.8745066708
 H         1.8188195454       -5.3689399769       -9.3851823973
 H         1.4287109289       -3.7119303918       -9.0739254326
 H        -1.2638522340       -3.8734986675      -11.7419015295
 H        -1.8013263324       -3.0955413844      -10.2540344489
 H        -3.8143954693       -3.8567025938      -10.5461771786
 H        -3.3172325789       -5.4723283825      -11.2510079550
 H        -6.3163648936       -4.1584096168      -14.9551263516
 H        -6.9235671188       -4.0298203901      -13.2896133192
 H        -8.0092301285       -6.4168642249      -13.6470659001
 H        -7.4469822300       -6.1901968069      -15.4730835044
 H       -11.6198454886       -2.9277981726      -12.0017869690
 H       -10.3147033161       -2.4234419402      -13.1996659088
 H        -8.7105868155       -2.1150303053      -11.4914826716
 H        -9.5873007850       -3.0795749990      -10.3047514854
 H        -7.2302408221        0.6800424631      -10.4406733876
 H        -7.2408443876        2.4298248691       -9.8952580244
 H        -6.5216619237        2.7382286591      -11.9551473223
 H        -8.1488177513        3.1742309825      -12.0889410929
 H        -9.5204034218        2.5330947663      -16.8008636578
 H        -8.6238188464        3.8356661734      -15.9996261188
 H       -11.5014286550        3.4666149146      -15.5405797159
 H       -10.8732546858        4.5261111204      -16.8132484373
 H       -13.8925928151        3.4788014465      -13.1538818528
 H       -14.1716042441        5.1522409334      -13.1335743589
 H       -14.4447089619        5.2634805243      -10.8494685865
 H       -12.9525041218        4.4761295690      -10.5780084312
 H       -17.1379279838        3.2040998212       -6.9558818591
 H       -17.9129496627        3.1892655423       -8.3782403452
 H       -17.3414621431        6.0165538961       -7.9582482629
 H       -17.7884002291        5.4133921549       -6.3688181517
 H       -19.4321102872        9.4285413882       -7.8428036161
 H       -19.9087774636        9.3247254670       -9.6029869679
 H       -18.1683933438        9.5701003267       -9.0584447379
 H       -21.4980362451        7.2451536157       -9.7006554819
 H       -22.1278653871        6.1428208477       -8.6721374073
 H       -20.9697854649        5.5926625492      -10.0042704479
 H       -19.6741982103        7.2639084755       -6.2209169271
 H       -21.5899938803        6.9884666561       -6.6390402882
 H       -20.7076248890        8.3718935473       -7.0994663601
 H       -17.7292103951        2.9589679978      -10.7304814283
 H       -16.4651723674        3.5746091221      -11.7294110002
 H       -17.0782454038        4.5574163783      -10.5027346735
 H       -17.1177810623        1.3096575359       -9.1850895812
 H       -15.5341333906        1.2360334560       -8.5448306417
 H       -15.8452143169        0.7845972079      -10.2520314833
 H       -11.0802629641        7.8986170397      -13.2587691173
 H        -9.7584286908        6.6430292523      -12.9919836434
 H       -10.9921264445        6.7560535477      -12.0063612018
 H       -13.1427509439        5.3987795320      -15.2525922550
 H       -12.2898403520        7.0507320396      -15.4492058110
 H       -13.4356523915        6.8161794398      -14.2858537571
 H        -6.0604959075        2.7912418706      -14.0490443721
 H        -7.2617097763        4.0491522762      -14.2089015878
 H        -6.5112076044        3.1652870632      -15.7336676441
 H        -6.9285699382        0.0589980161      -14.9785693371
 H        -7.0592027349        1.0606777003      -16.5021995129
 H        -8.5025342375        0.2225138766      -15.8229076646
 H       -11.8879071462        0.5607611104       -9.1861076094
 H       -10.8356979743        0.2053542369       -7.7203110146
 H       -11.3797549349       -1.1574786977       -8.6275837047
 H        -9.0095716028       -1.4877208535       -8.1863815161
 H        -7.7585936554       -0.2956573023       -8.4951408953
 H        -8.0252852442       -1.4525327753       -9.6953081297
 H       -12.4443445892       -5.4407779542      -14.4258942698
 H       -11.3123610059       -4.9481461436      -15.7349818609
 H       -11.7871415282       -3.7445634167      -14.6862762401
 H       -11.4687707116       -7.0480092831      -13.1113122650
 H        -9.8545223309       -6.8735584047      -12.5127614641
 H       -10.1376142147       -7.4726306192      -14.2688688052
 H        -4.4049267059       -4.9011033912      -15.8941193900
 H        -2.8035370371       -4.1468009234      -15.6020291199
 H        -4.3134581843       -3.2532344997      -15.1666470998
 H        -2.0392863203       -5.9467522937      -13.5540057511
 H        -3.0082196692       -6.5805150905      -14.7194623634
 H        -3.4302958562       -6.9783671435      -13.0467712260
 H         0.0281638976       -7.5066711890       -8.8200916716
 H        -1.7573892122       -7.4343093731       -8.9090819451
 H        -0.9314315790       -7.1714491713       -7.3692669298
 H        -1.9938729668       -3.6998791340       -8.1743117919
 H        -2.3047281946       -4.8706912134       -6.8441444526
 H        -3.1327372722       -4.9883582867       -8.5010098121
 H         5.3303849466       -5.3253382329       -5.8956170748
 H         5.0065736850       -3.5440561616       -5.9169034832
 H         6.6275802470       -3.8911323599       -6.0856710079
 H         6.3463344755       -2.2273687970       -7.8262433158
 H         4.6275584580       -2.5249018582       -7.9628939554
 H         5.6687207569       -2.7810441195       -9.3773444413
 H        10.0633604389       -1.2519464786      -11.4326966600
 H        11.3438312437       -1.1299983443      -10.1750121233
 H         9.6699827649       -1.7060027274       -9.6898048558
 H        11.4385084854       -2.9248225555      -12.9131502284
 H        11.8815695912       -4.5530947478      -12.2205090711
 H        12.7140732028       -2.9025334807      -11.7072607308
 H        16.3038445160       -4.7927093308       -7.0873907656
 H        15.9617693250       -4.5381126562       -5.2328563860
 H        15.0838812198       -3.6715210970       -6.4275373480
 H        15.9429540859       -7.2732525190       -5.5737550165
 H        15.7662347923       -7.1343162112       -7.2373305587
 H        14.4273942487       -8.0020483390       -6.4147740400
 H         9.2767929088       -4.0358955239       -1.5367990995
 H        10.8039042677       -4.8737459730       -1.2201690979
 H         9.3240800502       -5.7070347585       -1.0902107923
 H         7.7956540485       -6.1456226407       -2.4873196245
 H         7.9407675338       -6.0224027292       -4.3196672783
 H         7.4688053950       -4.7179266244       -3.4364798293
 Na        9.8469052936       -5.5083556087       -7.0602672107
 Na      -11.6699504215        1.8145457688      -11.8409827982
