232

 C        10.9978730870       -2.8259669022       -3.1196025942
 C        10.0769165670       -3.6516431059       -3.9911156805
 O         9.7992993440       -3.3629618531       -5.1305886193
 C         9.5678775238       -5.0442222548       -3.4104944929
 C        10.3759657045       -6.2925099603       -4.0075500456
 O        10.0623962512       -6.6771104882       -5.0972618649
 C        11.5758316424       -6.8733931250       -3.3175091246
 C        12.7716848250       -7.3657580171       -4.3257454958
 C        13.4805665589       -6.0799561104       -4.7598617641
 O        13.4576642584       -5.1897221757       -3.9765382066
 C        14.2085854670       -5.7986264730       -6.1874376488
 C        13.0239589479       -5.5377065049       -7.3588760485
 O        11.9106112702       -6.0019658140       -7.2744469655
 C        13.4228313021       -4.7745852494       -8.5873751191
 C        12.3459287763       -4.6806096975       -9.6639468420
 C        11.2832445875       -3.5470355557       -9.4856510257
 O        10.7359577790       -3.3643111204       -8.4369430747
 C        10.6824246593       -2.9458684244      -10.8251536054
 C         9.4215747516       -3.9102180722      -11.2178869778
 O         9.6012165640       -4.7918541329      -12.0605354047
 C         8.1354021964       -3.5752307265      -10.4437772583
 C         7.3013859503       -4.8016041750      -10.0487209487
 C         6.9890561521       -4.8210486674       -8.5579700290
 O         7.7682819347       -5.2398158270       -7.7278297946
 C         5.6211596927       -4.2329376112       -8.1305698511
 C         4.2698632161       -5.0755366097       -8.5323311933
 O         4.3652952841       -6.1486009930       -9.1403716800
 C         2.9868885983       -4.6383822951       -7.8518292367
 C         1.7894755383       -5.0026033024       -8.6140389173
 C         0.5544785433       -5.1256690851       -7.7398868642
 O         0.5471390849       -5.0492575496       -6.5189778684
 C        -0.8114135352       -5.4415067153       -8.3535113371
 C        -0.9403401272       -5.0170256857       -9.9397490162
 O        -0.0572998514       -5.3678059590      -10.7235936828
 C        -2.0887982503       -4.1184117116      -10.3775616042
 C        -3.1127552348       -4.7633639977      -11.3052608903
 C        -3.3745184496       -4.0784419669      -12.6447425938
 O        -3.3230539574       -2.8615068529      -12.7092559657
 C        -3.6905585064       -4.9205387673      -13.8845069795
 C        -5.1469068414       -5.5212008470      -13.5381599177
 O        -5.1661132205       -6.4360619299      -12.7403851445
 C        -6.3710656068       -4.8485688576      -14.2365358535
 C        -7.7143051283       -5.3090397165      -13.5911085653
 C        -8.9446951224       -4.7532720467      -14.1866095042
 O        -8.8795117763       -4.0533196615      -15.1687611757
 C       -10.3687107278       -5.2261033644      -13.5619774055
 C       -10.1852338355       -4.6353792485      -12.1494082583
 O        -9.7875443721       -5.3384536242      -11.2220311444
 C       -10.4955883314       -3.1865827709      -12.0040791876
 C        -9.5736879015       -2.4346825134      -10.9665798307
 C        -9.9374231912       -0.9430108088      -10.9271257557
 O       -10.6638691309       -0.4425473288      -11.7619209353
 C        -9.4138973544       -0.2162791960       -9.5595222328
 C        -9.0218811855        1.1761246598      -10.0099129638
 O        -9.9501566294        1.9357573309      -10.1941392511
 C        -7.5886047886        1.3475083554      -10.6231166103
 C        -7.6068619513        2.2237581741      -11.8666234213
 C        -7.8543431257        1.4096602612      -13.1966189565
 O        -8.0354162936        0.2126838184      -13.1651780472
 C        -7.9387633562        2.0193392112      -14.5968288227
 C        -9.5151091157        2.2627842099      -14.7839894983
 O       -10.3430657904        2.0090972603      -13.9618186246
 C        -9.9665114789        2.9631004284      -16.1659687711
 C       -10.9758660762        4.0942534796      -15.8733622671
 C       -10.6250666430        5.0493117520      -14.7822292330
 O        -9.5258217206        5.1953108329      -14.3324428741
 C       -11.8026798990        5.9459367881      -14.1166547759
 C       -12.3630721605        4.9697670530      -13.0101232367
 O       -11.7096759969        4.2123456138      -12.4364092824
 C       -13.9079873275        4.8036475461      -12.6716890558
 C       -14.1211368454        4.7189890777      -11.1462711061
 C       -14.6922916631        3.2688693992      -10.8995829076
 O       -14.0985682614        2.2947710917      -11.2881504329
 C       -16.1501242215        3.0350254129      -10.1125144212
 C       -15.9724487597        3.7950139039       -8.7078458234
 O       -14.9413698036        4.3622896311       -8.4430559330
 C       -17.0777679336        3.6352364844       -7.6281366625
 C       -17.5789020456        4.9881429369       -7.0300010080
 C       -19.0674037226        5.1245109506       -7.5623831136
 O       -19.7510169251        4.1583649484       -7.5094418800
 C       -19.6944444003        6.4085599934       -7.7986128321
 C       -18.7358709172        7.4775750049       -8.6390481786
 O       -17.8319696364        7.1247593319       -9.4002103218
 C       -19.1591695593        8.9322449771       -8.6708571355
 C       -20.9734857688        6.2122525321       -8.6827765451
 C       -19.9495902317        7.1835496515       -6.4665429855
 C       -17.3217267524        3.6426453220      -10.9016300734
 C       -16.1479270807        1.5909137375       -9.7301161501
 C       -11.1151922329        7.1453782056      -13.4701336867
 C       -12.9554512279        6.4196798033      -15.0245417117
 C        -7.2014324145        3.3715792287      -14.8609817788
 C        -7.7560145028        0.9833613570      -15.7168581984
 C       -10.6722056147       -0.1535228394       -8.7002063307
 C        -8.2639184866       -0.9858569200       -8.7843020978
 C       -11.5986491930       -4.6178506434      -14.3356847220
 C       -10.4398154874       -6.7484689050      -13.2962299709
 C        -3.5567277059       -3.9356571880      -15.1577090749
 C        -2.7405521550       -6.0898178577      -14.0528771539
 C        -0.9677416745       -7.1250330760       -8.4702252698
 C        -1.9498970015       -5.0859380261       -7.3311549380
 C         5.6278647883       -4.2515021021       -6.5251647866
 C         5.3738783773       -2.7593791100       -8.6173298212
 C        10.0778082272       -1.4344476519      -10.6790086824
 C        11.6566605462       -2.8351546242      -12.0279970264
 C        15.0148687377       -4.5220848772       -5.9818522709
 C        15.0331178063       -7.0446315211       -6.5696201792
 C         9.7095317615       -5.0912531746       -1.8113393638
 C         8.0632368681       -5.2572290058       -3.6684227055
 H        11.9630608820       -3.1580836902       -3.2694744297
 H        10.8256074897       -2.8720071108       -2.0688648991
 H        10.9700671474       -1.8484495868       -3.3937087573
 H        11.1426319745       -7.7402518721       -2.7932546035
 H        12.1241684852       -6.2041076457       -2.6113189106
 H        12.2098388773       -7.9092260683       -5.1756105515
 H        13.3355255256       -8.0352641503       -3.7432264055
 H        14.3499868598       -5.3521710696       -8.9882237115
 H        13.7687550155       -3.7676666028       -8.3186741456
 H        11.8531212820       -5.6438985138       -9.8704447646
 H        12.7639404141       -4.5187931465      -10.6085153246
 H         7.6178316942       -2.9341871171      -11.0943202556
 H         8.4532350658       -3.0792387879       -9.5055539391
 H         7.7632720027       -5.6593975317      -10.4249675822
 H         6.4675024562       -4.7646707161      -10.6569394090
 H         3.0318360267       -3.5662947425       -7.5836507878
 H         2.9086428166       -5.0623244142       -6.8436086333
 H         2.0217351643       -5.9920292542       -9.0343508546
 H         1.5453423462       -4.2690093732       -9.4134208808
 H        -1.4706549203       -3.2962180894      -10.9632286721
 H        -2.5703026640       -3.7100592387       -9.5753895203
 H        -4.1027251284       -4.5346366834      -10.9629334677
 H        -2.9251088154       -5.8464333551      -11.3116652304
 H        -6.4116113517       -5.0335598495      -15.3246100687
 H        -6.1519039206       -3.7814113480      -14.2024533547
 H        -7.6807455810       -5.1316260026      -12.4787777327
 H        -7.7572539417       -6.4364991123      -13.7545745324
 H       -11.5600474721       -2.8672655382      -11.9066062459
 H       -10.1670682734       -2.7627198193      -12.9640822866
 H        -8.4914993487       -2.5665240201      -11.3287090552
 H        -9.7420476952       -2.8176179822       -9.9808272289
 H        -7.3063301439        0.3313997165      -10.9040967314
 H        -6.9780470440        1.7208961936       -9.7509336558
 H        -6.6425561042        2.8502199204      -11.8490966138
 H        -8.3937374676        2.9416739027      -11.7283833830
 H       -10.3869918489        2.3577698367      -17.0515488749
 H        -9.1418054827        3.5412405760      -16.4588724387
 H       -11.9641346464        3.7086706538      -15.5745488311
 H       -11.0905687778        4.6314363682      -16.7750020186
 H       -14.1579165147        3.8927670062      -13.0729322274
 H       -14.4837804668        5.6259178885      -13.1092523430
 H       -14.7600746351        5.4967264276      -10.8207278438
 H       -13.1446146421        4.8071972052      -10.6835107632
 H       -16.5347659184        3.0978596530       -6.8644908895
 H       -17.9044635317        2.9930646517       -7.9112082657
 H       -16.8334458494        5.7570838701       -7.3084238730
 H       -17.6507679356        4.8265357308       -5.9168555565
 H       -18.2918184921        9.6117941036       -8.9834841003
 H       -19.6050773469        9.4429247700       -7.8332515739
 H       -19.9917264907        8.9382377967       -9.4162484305
 H       -21.6504285251        7.0933440092       -8.7606763055
 H       -21.5501170238        5.3188767419       -8.3390937807
 H       -20.7196946522        6.0010394417       -9.6928416151
 H       -18.9913870877        7.5495073225       -5.8984798452
 H       -20.2559210630        6.5263794163       -5.7308980685
 H       -20.7423302240        8.0022785171       -6.5724880558
 H       -18.0598112776        4.1071527057      -10.2751250874
 H       -17.7512968316        2.9070653958      -11.5414069840
 H       -16.9180435058        4.4566610167      -11.4904011482
 H       -16.9453507575        1.3771254520       -8.9875933928
 H       -15.2061313995        1.2754672789       -9.3413122603
 H       -16.4255074466        0.8719152931      -10.5247347437
 H       -10.1810881621        7.3823871576      -13.9876138694
 H       -10.7377487067        7.0412154180      -12.4531081340
 H       -11.6246484068        8.0826779018      -13.6185571346
 H       -13.3975449544        5.5754275147      -15.5987582126
 H       -12.5242425117        6.9869534577      -15.8156803664
 H       -13.7101920502        7.0095261406      -14.4941910908
 H        -6.0406600024        3.4980941731      -14.7137780936
 H        -7.8081793864        4.1886379913      -14.3794603731
 H        -7.3109367389        3.5695734439      -15.9707001164
 H        -6.7325427446        1.1377571735      -16.1915041574
 H        -8.5129549313        1.2383763113      -16.5101656280
 H        -7.9247824034       -0.0021235021      -15.3845308052
 H       -11.4183321473        0.2850826843       -9.3639786781
 H       -10.5193797163        0.5256947177       -7.8092530219
 H       -10.9587240402       -1.2059728651       -8.4252553855
 H        -8.6772142677       -1.6717007840       -8.0593856386
 H        -7.6165234891       -0.3298403873       -8.0851677772
 H        -7.5571149056       -1.5378889720       -9.4254910975
 H       -12.0900661545       -3.8639336726      -13.8069425561
 H       -12.3038370388       -5.4008060728      -14.7157363039
 H       -11.1324365732       -4.0133714488      -15.1533247726
 H       -11.4476139059       -6.9086902835      -12.7785943656
 H        -9.6552239215       -7.0630460654      -12.5559063001
 H       -10.4494651851       -7.3597981501      -14.2005678441
 H        -3.5778153893       -2.9123440078      -14.7740341193
 H        -4.3622450765       -4.2084601834      -15.8690782047
 H        -2.6174632673       -4.1636681733      -15.6548296625
 H        -1.7791117380       -5.6398391906      -14.2381284359
 H        -3.1445039106       -6.6898912196      -14.8563927926
 H        -2.6914801537       -6.6819836228      -13.2257232230
 H        -0.0994539699       -7.4357766745       -8.9455010246
 H        -1.9358262786       -7.4277621102       -8.8689231131
 H        -0.9679073590       -7.3666516829       -7.3907017548
 H        -2.1594358037       -3.9976964596       -7.2610534574
 H        -1.7190952111       -5.6743489731       -6.4429468430
 H        -2.8830237396       -5.4796437637       -7.6731225038
 H         5.7325493371       -5.2697725365       -6.1345822456
 H         4.6418406127       -3.7242607833       -6.2439758461
 H         6.5444799913       -3.7543445643       -6.2468287464
 H         6.2076234691       -2.3799028572       -9.1367859568
 H         5.2442314640       -2.1649680168       -7.6777988057
 H         4.4284167155       -2.6101098352       -9.1262569092
 H         9.1187724080       -1.4121130965      -10.1365946402
 H         9.7107302982       -1.2341923566      -11.7275477493
 H        10.8003677624       -0.6993122902      -10.2625019485
 H        11.2119851543       -2.4885640082      -12.9916849397
 H        12.0530319133       -3.8437880758      -12.3420093404
 H        12.4753428172       -2.1280279187      -11.7762354780
 H        15.3695589421       -4.1497484192       -6.9927466912
 H        15.9078275134       -4.7719644188       -5.3770025189
 H        14.3905387574       -3.7528806353       -5.5917349072
 H        15.7573738850       -7.4171188485       -5.8305534367
 H        15.4097283073       -7.0443465837       -7.6228426671
 H        14.2760191953       -7.8165135090       -6.6590371526
 H         9.1081875742       -4.4290742188       -1.2653064942
 H        10.7324626111       -4.8292790342       -1.5433511822
 H         9.4035925177       -6.0643804186       -1.4962155201
 H         7.7706792058       -6.2204739817       -3.3233588339
 H         7.8167249971       -5.1484139299       -4.7433670653
 H         7.4410397867       -4.5030126945       -3.1579887111
 Na        9.6636420525       -5.1500914140       -6.8833281378
 Na      -11.5997467227        1.9740434110      -11.7414608892
