232

 C       -17.6729701394       -5.8013667429       -3.0021861640
 C       -17.8521738865       -7.3166349558       -2.8637932146
 O       -17.0931946875       -8.1284470075       -3.3383522463
 C       -19.2357082568       -7.7944247690       -2.2427502346
 C       -18.7331072492       -8.4943951296       -0.9412734831
 O       -18.4506868216       -9.6457851692       -0.9678230652
 C       -18.6816077313       -7.7242179063        0.4163894154
 C       -17.4393384628       -8.0438093289        1.2672193015
 C       -16.1610067169       -7.3033769644        0.7357746941
 O       -16.2701869192       -6.2938849715        0.0769437090
 C       -14.8030278624       -7.9809356224        0.9182991455
 C       -14.7098901606       -9.0636935386       -0.2038598487
 O       -15.4984627590       -9.9932248964       -0.2297175036
 C       -13.7816337902       -8.8160411961       -1.4018269408
 C       -13.1329785097      -10.0627708227       -2.0494715977
 C       -13.6036182250      -10.4611014673       -3.4894233969
 O       -14.8071056101      -10.6853820415       -3.6569056640
 C       -12.6394880013      -10.6923021653       -4.5970131306
 C       -12.6166445082       -9.3479084440       -5.3577688556
 O       -12.5801619514       -8.3018369009       -4.7620969724
 C       -12.5613560704       -9.3522650574       -6.9268205971
 C       -13.1276946575       -8.0767781223       -7.5347667078
 C       -12.5149496219       -7.9855771367       -8.9276843800
 O       -11.9693847178       -8.9760762816       -9.4332028092
 C       -12.6870294919       -6.6886765255       -9.5589937858
 C       -11.3988724467       -5.8899539143       -9.0983982077
 O       -10.8099905381       -6.1451895728       -8.0634656096
 C       -11.0146929640       -4.7666565421      -10.0981221783
 C       -10.0421634220       -3.7262416701       -9.5850653340
 C       -10.4594727238       -2.2559374499       -9.9155960262
 O       -11.5874285819       -1.9637548646      -10.0803154030
 C        -9.2876073721       -1.1837135061       -9.8514119284
 C        -8.1717470118       -1.5512376104      -10.9182543190
 O        -8.3510645520       -2.6142003767      -11.4440899575
 C        -7.1105507235       -0.5923871793      -11.2874050764
 C        -6.0330494795       -1.4907639439      -11.9962281997
 C        -4.7622285751       -0.6614121013      -12.3138672556
 O        -4.5394563906        0.4973845143      -12.0471940311
 C        -3.6703704287       -1.4828595184      -13.1549748320
 C        -2.7037788885       -1.8688764429      -11.9915646803
 O        -3.1223478823       -2.3808394286      -10.9826155378
 C        -1.1390957521       -1.5471297975      -12.3047984431
 C        -0.2378907723       -1.7418939103      -11.1336291514
 C        -0.1646969686       -0.6005438412      -10.1922856471
 O        -0.8410381305        0.3896030936      -10.0970386179
 C         1.0237626301       -0.7942389705       -8.9245826484
 C         2.2933339233       -0.0606679586       -9.4915473535
 O         3.0081216493       -0.6286179598      -10.2587281935
 C         2.4295738383        1.4003481156       -9.3188500179
 C         3.8619722914        1.8208454745       -9.7037092435
 C         4.1865889349        3.2462962370       -9.2257684261
 O         3.3289296676        3.8697446429       -8.6380964220
 C         5.6495571327        3.9413789635       -9.5832737706
 C         5.3586936147        4.6090890530      -10.9602272659
 O         5.5163882064        3.9474586946      -11.9988536047
 C         4.5621319135        5.9167048587      -11.0136742266
 C         5.1784481293        7.1618197747      -11.7242975732
 C         4.8906928970        7.0810832742      -13.2917315749
 O         4.4576209604        6.1246526014      -13.9203436915
 C         5.1549391371        8.3942281294      -14.1005254320
 C         6.0871440825        7.9874338306      -15.3060941755
 O         5.9021645054        8.2526991501      -16.4719264733
 C         7.3360524313        7.2719662847      -14.7479687132
 C         8.1729639976        6.5829126896      -15.8858716651
 C         7.2524440668        5.5979095773      -16.7525098031
 O         6.3888414823        4.9573873538      -16.1732784523
 C         7.7935519182        5.1799279980      -18.1258708386
 C         9.1962463985        4.2745724388      -17.8310274904
 O         9.5867918761        4.1168469687      -16.7041238194
 C         9.8627811140        3.8435605996      -19.1867874557
 C        10.8235797366        2.5926459587      -18.9791945315
 C        10.0510831637        1.2415651626      -19.1026876428
 O         8.9935476335        1.2172409783      -19.7712482279
 C        10.7072864334        0.1408834421      -18.3162363962
 C        10.0077011740        0.5291705956      -16.8117903465
 O        10.8429748108        0.5446239211      -15.8848689322
 C         8.5799591071        0.8931989283      -16.6097321800
 C         7.7104829193        0.0783516812      -15.7136623825
 C         6.7362864359        0.9690080283      -14.8361020570
 O         7.1091271693        2.0801965944      -14.3855337155
 C         5.3864989109        0.2592185805      -14.3920095491
 C         4.3250722973        1.0627204205      -15.4161440070
 O         4.1198766892        2.2167507043      -15.2970700457
 C         3.6982261464        0.2342221925      -16.5861012229
 C         5.3431074957       -1.3001491031      -14.7753947076
 C         5.0208256257        0.5110854379      -12.8841181480
 C        10.3686126406       -1.3846018380      -18.7408814478
 C        12.2027602147        0.2907851806      -18.1870062258
 C         6.7310179194        4.2389152547      -18.7609742312
 C         8.0390776120        6.3285608167      -19.0057565905
 C         3.7427573467        8.9320692729      -14.6048421517
 C         5.7950326831        9.5438846153      -13.3452769502
 C         6.0050721012        4.9653203776       -8.5348391502
 C         6.7868055406        2.9129523721       -9.7549499311
 C         0.5677553944       -0.0704711608       -7.5857154985
 C         1.3530539184       -2.2785968881       -8.7990330592
 C        -4.0895260752       -2.8787634174      -13.6558795676
 C        -3.2727512179       -0.5745579659      -14.2166944748
 C        -9.8456564820        0.1987416555       -9.9573163811
 C        -8.6505272151       -1.3420983521       -8.3917406522
 C       -12.7507881655       -6.8444784134      -11.0885562721
 C       -13.9130450745       -5.8391332872       -9.0274743504
 C       -11.1699619022      -10.8809178965       -3.9923331716
 C       -13.0988266483      -11.8652850254       -5.4131169862
 C       -13.6212667236       -6.9842649714        1.0479065442
 C       -14.8332431298       -8.8128618347        2.2686270131
 C       -20.1987767446       -6.6568377417       -1.9719806645
 C       -19.8503317007       -8.8508969609       -3.2275526240
 H       -17.8916103053       -5.1830522856       -2.1098820319
 H       -18.2842248855       -5.5191883738       -3.8586971405
 H       -16.6287991301       -5.7389415483       -3.3923119653
 H       -19.6237955372       -7.9991521808        0.9170093494
 H       -18.6766005779       -6.6426487379        0.2971878192
 H       -17.3453764329       -9.1459008450        1.1979574084
 H       -17.6557720446       -7.9030925230        2.3311087885
 H       -12.9871588285       -8.0813760997       -1.2043113342
 H       -14.4153791015       -8.3230390708       -2.1539010544
 H       -13.2400060600      -10.9184926614       -1.3985145491
 H       -11.9990133572       -9.8193912169       -2.0341808925
 H       -13.0408951828      -10.1799726871       -7.4601506737
 H       -11.4686676331       -9.4396949010       -7.2457265132
 H       -12.7349002426       -7.2825795785       -6.8600773324
 H       -14.2166425004       -8.0847229483       -7.4998765118
 H       -11.9365884700       -4.1469632796      -10.3057849533
 H       -10.6570177245       -5.3333760173      -10.9635311663
 H        -9.1276922630       -4.1255585864       -9.9050363323
 H       -10.2132781966       -3.6893742258       -8.5403809958
 H        -6.8998990302       -0.0584880193      -10.4397083758
 H        -7.3823573991        0.2259723262      -11.9816912307
 H        -6.5300973495       -1.7855204436      -12.9009946377
 H        -5.8594009535       -2.3019184111      -11.2449274344
 H        -1.0495087995       -0.4880320875      -12.7357040839
 H        -0.9693719737       -2.3194362970      -13.1376403328
 H         0.8064172038       -1.9858396898      -11.5132259352
 H        -0.5368447785       -2.6273009986      -10.6704048953
 H         2.2627854091        1.7493714677       -8.3201941663
 H         1.7056020886        1.9663858448      -10.0773193334
 H         3.9885563932        1.6896324118      -10.7913858190
 H         4.4996276874        1.2333455380       -9.0566432091
 H         4.3209351821        6.0352947615       -9.8753575817
 H         3.5840357274        5.5634436462      -11.5571838346
 H         6.2615038651        7.2446397437      -11.7351419660
 H         4.6944634503        8.0569619434      -11.3688107857
 H         7.0941558451        6.5242556954      -13.9244141468
 H         7.9486558735        7.9777862545      -14.1951546371
 H         9.1182198894        6.0381930684      -15.5026626666
 H         8.5777152723        7.3590494348      -16.4703345673
 H        10.4750465925        4.7633039494      -19.5861461836
 H         9.1846233833        3.7613668151      -20.0456639575
 H        11.3186923590        2.6594442927      -18.0174022694
 H        11.5155357734        2.6507309905      -19.8903493108
 H         8.1640890491        1.0379239758      -17.5688945570
 H         8.5851858806        1.9289011069      -16.1274593009
 H         8.3295549491       -0.4544396402      -15.0027169207
 H         7.2587049225       -0.8018159460      -16.2355864603
 H         4.4859350457        0.1892566179      -17.4202079180
 H         3.0678748499        0.9070649868      -16.9715620539
 H         3.2701467442       -0.6748033440      -16.2603406742
 H         4.3541645909       -1.8091738064      -14.6238004113
 H         6.1189252419       -1.8581148323      -14.2867973179
 H         5.3100566604       -1.4649326226      -15.8777719031
 H         4.2686210751       -0.1978219254      -12.3759802865
 H         4.7566706690        1.5856284219      -12.7451166362
 H         5.9468025893        0.3587638053      -12.2539844861
 H        11.0278944060       -2.0173744201      -18.0790292846
 H        10.4163985188       -1.5063704790      -19.8427933366
 H         9.3034642130       -1.5819852767      -18.4576831309
 H        12.6688026446        0.6512767541      -19.1201222160
 H        12.7048702446       -0.6511138716      -17.9168962293
 H        12.4939624179        1.0545124132      -17.4268422504
 H         5.8138893646        4.7545657416      -18.4666644064
 H         6.6571485130        3.2820877677      -18.2094968738
 H         6.8713883974        3.9960065234      -19.8535137683
 H         9.1240202816        6.6270725073      -18.8991417426
 H         7.3708552997        7.1788341098      -18.7098046638
 H         7.9229504275        5.9508919164      -20.0482957524
 H         3.9434236277        9.8624856574      -15.0980065270
 H         3.0244086106        9.2624182547      -13.8479933912
 H         3.3828029800        8.3530563944      -15.4230952140
 H         5.9036612188       10.4341203395      -13.9543427868
 H         6.7510492040        9.3110522428      -13.0004248117
 H         5.2754514034        9.7262575590      -12.4138245433
 H         6.3018222745        4.3438524058       -7.6626945322
 H         5.2154983460        5.6460661178       -8.5488391297
 H         6.9835607016        5.3197650924       -8.9475626801
 H         7.7879877051        3.3567680068       -9.5894630521
 H         6.9319810929        2.4093752951      -10.7586012948
 H         6.7585129509        2.2571265031       -8.8821415157
 H         0.0949786227        0.8282036379       -7.8634892352
 H         1.3424258314        0.1185746825       -6.9139095122
 H        -0.1244251925       -0.6563347974       -7.0751885522
 H         0.4127900520       -2.8064573931       -8.5924716422
 H         2.1422427177       -2.3375615535       -8.0617758201
 H         1.7437077387       -2.7050605580       -9.6916033602
 H        -4.7041852317       -3.5563137054      -13.0233585643
 H        -3.1927502683       -3.4792803404      -13.8094871861
 H        -4.5154564768       -2.6772360990      -14.6922826324
 H        -2.2829963576       -0.7841391932      -14.5713654496
 H        -3.2279727303        0.4753774732      -13.9068444318
 H        -4.0405281046       -0.5283484763      -15.0558096830
 H       -10.2704590875        0.5715007076       -9.0138152739
 H       -10.5728970790        0.3344620494      -10.7968855236
 H        -9.0292801311        0.9460427870      -10.1792602949
 H        -9.3660723520       -0.8742041919       -7.7694623219
 H        -7.8146593545       -0.6421868507       -8.2429420278
 H        -8.3774927676       -2.3577010421       -8.0174277339
 H       -12.7202289340       -5.7951963783      -11.4014573451
 H       -13.6782105960       -7.2850741771      -11.4359501760
 H       -11.9097408459       -7.4350212525      -11.5148555794
 H       -14.8952782584       -6.4213920064       -9.1534705579
 H       -14.1832023547       -4.9983911473       -9.6820402750
 H       -13.7575171016       -5.5607771999       -8.0107418347
 H       -10.5641255674      -10.0413647319       -3.8026212215
 H       -10.4975654000      -11.5545967688       -4.5994549385
 H       -11.1468445204      -11.4695844687       -3.0408627691
 H       -13.9183691664      -11.4821465797       -6.0555508394
 H       -13.5827862274      -12.6672087367       -4.8674074348
 H       -12.3760065885      -12.3172993878       -5.9642790310
 H       -13.5508063660       -6.1205982507        0.3349402953
 H       -12.6811340687       -7.5354741582        0.9841725266
 H       -13.6145400081       -6.6395514520        2.0908849316
 H       -15.3422401520       -9.7789023397        2.2407657819
 H       -15.3654832250       -8.3660927851        3.0749282798
 H       -13.8027935126       -8.9899827505        2.7270175477
 H       -19.6182877377       -5.8857868349       -1.4175993345
 H       -20.9717776947       -7.1296700855       -1.3660989085
 H       -20.6490450585       -6.2657824507       -2.8636243773
 H       -20.6200652749       -9.4294889116       -2.7782983839
 H       -19.0157934054       -9.5607757525       -3.5405972025
 H       -20.2627270162       -8.2689488015       -4.0920072147
 Na      -16.5379375137      -10.3559586143       -2.3543518818
 Na        5.6140206202        3.8912748499      -14.2388010166
