232

 C        10.9731031908       -2.8553123922       -3.0806971767
 C        10.1173973703       -3.7214100113       -3.9852450550
 O         9.8302588685       -3.2808094821       -5.1263200597
 C         9.5827557784       -5.0847165731       -3.4461348185
 C        10.4428248506       -6.2577690422       -4.0838615547
 O         9.9940482640       -6.5491334589       -5.2289948558
 C        11.5018948450       -7.0718876304       -3.3677675131
 C        12.6507525488       -7.4066244047       -4.3980152940
 C        13.2859677179       -6.0971532566       -4.7709524971
 O        13.3805092478       -5.1610243500       -3.9987514504
 C        14.0696394198       -5.9337206099       -6.2309455459
 C        13.0421369595       -5.6323157529       -7.3176522857
 O        11.8860193657       -5.9508828012       -7.1100697356
 C        13.4915532566       -4.7641744888       -8.6200010558
 C        12.3766080396       -4.6236971244       -9.7799256482
 C        11.2428601039       -3.5401714390       -9.5798587607
 O        10.7417413158       -3.4150507539       -8.4824762118
 C        10.6342853387       -2.9044494114      -10.8421591554
 C         9.4733961931       -3.8317172017      -11.1378727328
 O         9.5680339569       -4.7635424169      -11.8847700491
 C         8.0486496370       -3.5646978038      -10.4992054538
 C         7.1758136544       -4.8418287045      -10.0619325610
 C         6.9259009597       -4.7881696957       -8.6008819246
 O         7.6575924638       -5.2897257266       -7.7875614241
 C         5.5940136395       -4.0419673437       -8.0673432551
 C         4.4436669337       -5.0654706836       -8.4884055337
 O         4.6535951073       -5.9950646810       -9.1934781182
 C         3.0480114841       -4.8530072428       -7.8481692927
 C         1.7815290505       -5.1095146173       -8.6768729682
 C         0.5629804610       -5.2216478813       -7.7489869919
 O         0.7601083533       -5.0539345315       -6.5744781314
 C        -0.8904716434       -5.5511249515       -8.3417357709
 C        -1.0242943966       -5.0233361047       -9.8724070207
 O        -0.1266338424       -5.2526762103      -10.6359465372
 C        -2.2397177916       -4.1912928112      -10.3024581424
 C        -3.1869975387       -4.9021815038      -11.3147393915
 C        -3.3703340420       -4.0393784814      -12.5984012913
 O        -3.2920497990       -2.8078150909      -12.6507189439
 C        -3.6735178849       -4.8979168424      -13.9462639829
 C        -5.0487967869       -5.4881253665      -13.6019379006
 O        -5.2631556175       -6.3809363997      -12.7522938092
 C        -6.3441589477       -4.9971361515      -14.2834131270
 C        -7.5904559725       -5.4405469404      -13.4961929106
 C        -8.8658313711       -4.8405029571      -14.2489372554
 O        -8.8056703597       -4.1541974582      -15.2408216500
 C       -10.2048375557       -5.1802281289      -13.4799050680
 C       -10.2293897246       -4.5766814608      -12.0656325407
 O        -9.8899065107       -5.1995654627      -11.0772157559
 C       -10.6188216515       -3.1611818019      -11.9306601634
 C        -9.6228707285       -2.4647545702      -10.9447969582
 C        -9.8949830957       -1.0298238687      -10.8336027105
 O       -10.6048074838       -0.4158813736      -11.5932004686
 C        -9.4071369898       -0.2907993633       -9.5819586381
 C        -9.0609605955        1.0806439633      -10.1372415812
 O        -9.8805353622        1.9757414446      -10.2069151114
 C        -7.6129466203        1.3525903407      -10.6106706518
 C        -7.5453935533        2.1787609714      -11.9034317498
 C        -7.8978159078        1.3828876484      -13.2113364480
 O        -7.9078076359        0.1849578477      -13.1047559951
 C        -8.1784068289        2.0600787738      -14.6851493809
 C        -9.6155277270        2.4755028252      -14.8120721179
 O       -10.4239750573        1.9873976677      -13.9344250045
 C       -10.0217556506        3.0810298182      -16.1117935033
 C       -11.1640471779        4.0143202101      -15.8614663705
 C       -10.7967439602        5.0061404018      -14.6998653325
 O        -9.6469652127        5.1296932205      -14.3304365189
 C       -11.8497972438        5.9693249382      -14.0683886524
 C       -12.4655072018        5.0463373981      -12.9515574663
 O       -11.6951410069        4.2381985398      -12.3788808277
 C       -14.0710768508        5.0489320818      -12.7121125533
 C       -14.3032426573        4.6920398014      -11.2604192149
 C       -14.7432015727        3.2335060412      -10.9086218028
 O       -14.0229288866        2.2763739343      -11.2581228411
 C       -16.0401089340        3.0502349698      -10.1235017145
 C       -15.8499680385        3.7920444500       -8.7309820611
 O       -14.9015199995        4.5353408805       -8.5722232942
 C       -16.9403636503        3.5124355365       -7.7006944316
 C       -17.4839794587        4.8931179416       -7.1969756679
 C       -19.0086294895        5.0048686595       -7.5416920370
 O       -19.7083973384        4.0063178542       -7.5566780332
 C       -19.5437151727        6.4777156041       -7.7912155435
 C       -18.6828463865        7.5002043342       -8.7351347254
 O       -17.7564117790        7.0739113709       -9.2874383011
 C       -19.1690347081        8.9612262998       -8.7197862068
 C       -20.8989429892        6.3269423583       -8.4645686753
 C       -19.8017812806        6.9925391287       -6.3566593414
 C       -17.2630622884        3.6719112655      -10.8254517675
 C       -16.2755244003        1.5888363964       -9.7990589469
 C       -11.1733049476        7.2265734477      -13.5775180630
 C       -12.9451396504        6.3855926856      -15.0802415383
 C        -7.2000793470        3.3406878150      -14.8653574640
 C        -7.7758077290        0.9840086077      -15.7128568791
 C       -10.7179119214       -0.1901451244       -8.6827761192
 C        -8.1442896482       -0.8270842620       -8.8010950813
 C       -11.3904079442       -4.6825226382      -14.3015692061
 C       -10.2933842507       -6.7288042325      -13.3387569162
 C        -3.6803584919       -3.9507554560      -15.1599134213
 C        -2.5891111890       -6.0740690160      -14.1562504706
 C        -1.0011823748       -7.1976158521       -8.4944320766
 C        -1.8930427552       -5.1107277647       -7.3708229204
 C         5.6219658820       -4.1894065433       -6.5027119061
 C         5.3010122682       -2.7018287717       -8.6800306765
 C        10.0884353853       -1.4663019781      -10.6736076633
 C        11.6843847024       -2.8097976184      -11.9910128519
 C        14.9178743412       -4.6415919243       -6.0481043999
 C        15.0408053195       -7.0199069288       -6.6032271934
 C         9.7383006711       -5.0788978003       -1.8157045066
 C         8.1175083478       -5.2538676276       -3.7697720393
 H        11.9987328924       -3.1552229986       -3.1975008327
 H        10.7736081026       -3.0272957225       -2.0955669644
 H        10.9182682832       -1.8114758967       -3.2921730002
 H        10.9450391614       -7.9150700179       -2.9875517258
 H        12.0152380246       -6.4902645072       -2.5530421909
 H        12.2200452671       -7.8821390031       -5.2158305301
 H        13.3331704229       -8.0832823073       -3.9219956879
 H        14.4107653618       -5.3031617800       -9.0163650545
 H        13.8553501379       -3.7642979459       -8.2993266319
 H        11.8885940762       -5.5560676079       -9.9485362123
 H        12.7855510404       -4.5127729200      -10.7488986647
 H         7.4799135003       -3.0166534615      -11.2395760119
 H         8.2700295476       -2.9655618248       -9.5772892446
 H         7.7764451753       -5.7068089087      -10.3209866663
 H         6.3783062805       -4.9375206831      -10.7476534493
 H         3.0647443185       -3.8047198777       -7.5085420951
 H         2.9034864915       -5.3156555941       -6.8628705785
 H         2.0210326836       -6.0879184497       -9.1815484361
 H         1.5658083876       -4.3177440337       -9.3770664125
 H        -1.8265901071       -3.3129535806      -10.7140662893
 H        -2.8562070560       -3.9552813961       -9.3501943584
 H        -4.2039982559       -5.0600238895      -11.0254950670
 H        -2.7218854795       -5.9104962744      -11.5152777359
 H        -6.5275978784       -5.2473576731      -15.3100159345
 H        -6.2153383425       -3.9210684238      -14.3357807047
 H        -7.5928542148       -5.1086440231      -12.5421324937
 H        -7.5377024952       -6.5106894915      -13.4290598552
 H       -11.6551536683       -2.9967636889      -11.4492476060
 H       -10.7023975106       -2.6335287574      -12.8578375367
 H        -8.5653404110       -2.6246156803      -11.1920659352
 H        -9.9165912470       -2.8766211136       -9.9594728524
 H        -7.1263164623        0.3731941445      -10.7614686442
 H        -7.0639919253        2.0008271153       -9.8131495394
 H        -6.5230348062        2.4795568293      -11.8524840915
 H        -8.1241678234        3.1323802714      -11.7531172009
 H       -10.4224939566        2.2405293445      -16.6904313654
 H        -9.1321567545        3.6423880794      -16.6520563233
 H       -12.0607101145        3.4755180235      -15.5858798010
 H       -11.3846598047        4.5455018948      -16.7681022541
 H       -14.5533113872        4.3383604381      -13.3209227184
 H       -14.3672757256        6.0486022907      -12.9111046964
 H       -15.0439901877        5.3529278535      -10.8957393466
 H       -13.3692036722        4.9309674950      -10.7739751992
 H       -16.4508614694        2.9406674469       -6.8912072329
 H       -17.7308860372        2.9097882672       -8.1140256439
 H       -16.8847623347        5.6632548157       -7.7281476850
 H       -17.3527572004        4.9130938456       -6.1444284784
 H       -18.4688932451        9.6020139412       -9.2908185969
 H       -19.1116134145        9.4232014842       -7.7208055621
 H       -20.2587748026        9.1184537500       -8.9562153373
 H       -21.4301843328        7.2853380876       -8.6031652664
 H       -21.4851607450        5.7100621288       -7.7330483482
 H       -20.9689400306        5.7721920423       -9.3676749908
 H       -18.9937748100        6.9228657111       -5.6600666153
 H       -20.3712733708        6.1883958286       -5.9042983015
 H       -20.3663510424        7.9494656774       -6.2068900797
 H       -17.9347925527        3.9540736568      -10.0491680689
 H       -17.6979440336        2.9448626626      -11.4475159377
 H       -17.0238365830        4.5583267136      -11.3493841935
 H       -17.2032644919        1.3942821935       -9.3452103071
 H       -15.4551733419        1.0617560258       -9.2675046088
 H       -16.3721801196        1.0281916178      -10.7114835154
 H       -10.2662767048        7.4645457308      -14.1309967192
 H       -10.7008561809        7.1316772699      -12.5918009064
 H       -11.7554344356        8.1585674444      -13.6541849697
 H       -13.5402276758        5.5797028523      -15.4791673697
 H       -12.5629769060        6.8741711568      -16.0274516874
 H       -13.5996975000        7.0409842697      -14.4946130751
 H        -6.2229399283        3.0726334258      -14.5297568471
 H        -7.5710210770        4.3437281883      -14.3246924025
 H        -6.9897341730        3.5953696204      -15.9422567043
 H        -6.7163480887        1.0397749999      -15.8021181078
 H        -8.2178399421        1.2418234864      -16.6920072320
 H        -8.1211679933       -0.0251247782      -15.4229102815
 H       -11.3487502873        0.5352391587       -9.2371104933
 H       -10.5535407999        0.1992413686       -7.6105806163
 H       -11.1644627140       -1.1336150682       -8.7487535120
 H        -8.4072916443       -1.3571610460       -7.8444784092
 H        -7.5203960904       -0.0391303923       -8.4549091509
 H        -7.5247647818       -1.5280020051       -9.3694832555
 H       -11.9819939285       -3.8289785623      -13.8064387970
 H       -12.0307692540       -5.5263219374      -14.4960469389
 H       -11.0437206430       -4.1571235465      -15.2081620778
 H       -11.3384266979       -7.0187389941      -13.2169880802
 H        -9.7003828879       -7.1037782818      -12.4391094429
 H        -9.9421076907       -7.1845916451      -14.2594739444
 H        -3.2763633504       -2.9638751049      -14.8698566870
 H        -4.6426975172       -3.9831852270      -15.5533026393
 H        -3.0876159200       -4.4479462544      -15.9159484271
 H        -1.6115316029       -5.5071359474      -14.0696873585
 H        -2.7464939268       -6.5501016183      -15.0714956847
 H        -2.6428435419       -6.8180706552      -13.3899388681
 H        -0.1994033847       -7.3903238105       -9.1326930393
 H        -1.9741572549       -7.4287238360       -8.8649607184
 H        -0.9609060956       -7.6534230310       -7.4873923799
 H        -1.8831605951       -4.0171907825       -7.3361226181
 H        -1.6754689810       -5.6935909256       -6.4956673503
 H        -2.9608741743       -5.3444617834       -7.6439852988
 H         5.5388684059       -5.2067070123       -6.2557731517
 H         4.7600344284       -3.6344554781       -6.2263486240
 H         6.5991995969       -3.9086012158       -6.1174417576
 H         5.8734581989       -2.6741814054       -9.6119770698
 H         5.5918837734       -1.9367876161       -8.0780044427
 H         4.2494199567       -2.5282426891       -8.8172508187
 H         9.6577262068       -1.3134149670       -9.6421963952
 H         9.1643555764       -1.5074425940      -11.3189540723
 H        10.7974552109       -0.6989766983      -10.9398151151
 H        11.2533544462       -2.4407562551      -12.9672838113
 H        12.0496490654       -3.7963105710      -12.3088805571
 H        12.5460990988       -2.1311670935      -11.7029928462
 H        15.6459358513       -4.5179509612       -6.8042533206
 H        15.4604526393       -4.6315361544       -5.0872732409
 H        14.1552304604       -3.8439272876       -6.1613670955
 H        15.7820679765       -7.0740867101       -5.7997145034
 H        15.4465082535       -6.6914595731       -7.5957364595
 H        14.7307788448       -8.0744891453       -6.8031535950
 H         9.2059005524       -4.2443350472       -1.3436291689
 H        10.7763951257       -4.9276217585       -1.5258074325
 H         9.2571776916       -5.9234200774       -1.4318852676
 H         7.6625782522       -6.0603422271       -3.2208358762
 H         7.9606954366       -5.4634760986       -4.8433292582
 H         7.5577077745       -4.3016349230       -3.5343915904
 Na        9.7273338654       -4.9156686295       -6.8026525094
 Na      -11.6145955333        2.0439933081      -11.6708823271
