232

 C        11.0979513079       -3.0002028217       -2.8959786180
 C        10.2882165158       -3.7565394900       -3.8924760339
 O        10.0013387538       -3.3280206107       -5.0479570424
 C         9.6694951359       -5.0713549471       -3.3959465903
 C        10.2374150753       -6.2582079845       -4.2828725149
 O         9.8842242236       -6.2750314854       -5.4728163531
 C        11.2895119596       -7.2682114155       -3.8169135736
 C        12.5020811034       -7.3188267877       -4.7577024789
 C        13.0204335308       -5.9702157561       -4.9173400307
 O        12.8409996654       -5.1660167764       -4.0440413622
 C        13.9356369461       -5.7516535372       -6.2339846440
 C        12.9317682263       -5.4469122460       -7.3355870587
 O        11.8093290111       -5.9596428319       -7.3585660219
 C        13.3642344598       -4.6589939996       -8.5940106545
 C        12.2864883795       -4.8228521169       -9.7332412351
 C        11.2400995852       -3.6782410157       -9.5774788789
 O        10.8139331852       -3.3494000563       -8.4962141052
 C        10.7334109624       -2.8515625115      -10.7920042575
 C         9.3870187962       -3.8384225182      -10.9646950680
 O         9.5486851816       -4.8942223556      -11.5254840946
 C         8.0244539395       -3.3374902288      -10.5338646570
 C         7.1576963707       -4.6120670942      -10.0652371588
 C         6.9724900812       -4.5875662838       -8.5071688733
 O         7.8279038812       -5.0660773867       -7.8020650498
 C         5.5929416863       -4.0308508792       -8.0399233613
 C         4.4378173867       -5.2161778833       -8.5659747316
 O         4.6278217359       -5.8429510724       -9.5619220511
 C         3.1405980788       -5.3078850469       -7.8298332673
 C         1.8912707040       -5.6467964607       -8.7181387129
 C         0.6288212381       -5.4246649364       -7.8206252984
 O         0.8044184255       -5.0890497146       -6.6741853853
 C        -0.8397302715       -5.6225410598       -8.3813409744
 C        -1.1379486213       -4.9187638076       -9.8450677209
 O        -0.2687929042       -4.9175161452      -10.6942371188
 C        -2.6233790930       -4.5084398146      -10.0834417664
 C        -3.0196264918       -5.1269327541      -11.4095214370
 C        -3.2044736934       -4.1328976911      -12.5491664337
 O        -3.1655585476       -2.9052035954      -12.3940415622
 C        -3.4837132226       -4.8398110292      -13.9462505106
 C        -4.9492371060       -5.5934128218      -13.6390444339
 O        -4.9132530813       -6.5866965373      -12.8978121639
 C        -6.2514684639       -5.1766302839      -14.2959300208
 C        -7.4845673574       -5.5361935622      -13.4258238770
 C        -8.7676229878       -5.0589516041      -14.1855712931
 O        -8.7311895370       -4.3548308485      -15.1526328858
 C       -10.1328207605       -5.3767756305      -13.4730279123
 C       -10.1353826679       -4.6611451408      -12.0135700663
 O       -10.0138109003       -5.4621237678      -11.1064631592
 C       -10.5609626443       -3.1838277550      -11.9189706105
 C        -9.7700512136       -2.2755295706      -10.9229918696
 C       -10.2015470590       -0.7961379393      -10.7173170175
 O       -10.9302977933       -0.1735988500      -11.4781966103
 C        -9.3842978969        0.0082373666       -9.5585292418
 C        -8.9051383165        1.3358712386      -10.1319677319
 O        -9.7102646481        2.2762055294      -10.1717325184
 C        -7.5486937451        1.5957219944      -10.5578568599
 C        -7.7002623883        2.2368813126      -11.9652135468
 C        -8.0341249331        1.2634824961      -13.1261676652
 O        -7.7763847371        0.0818923346      -13.0326466746
 C        -8.2409885498        1.8704688682      -14.5144468708
 C        -9.6762137212        2.2550223351      -14.7229911828
 O       -10.4283270018        2.2471552774      -13.7285073972
 C       -10.2746879292        2.8088904989      -15.9828647769
 C       -11.3620893581        3.8427510671      -15.7934640836
 C       -10.9813246122        5.0514745188      -14.7937018598
 O        -9.8452611581        5.0902542736      -14.3411101114
 C       -12.1326402512        5.9766736395      -14.1808128545
 C       -12.6983524652        5.1902712883      -13.0492696798
 O       -11.9366024316        4.6945485956      -12.2607637824
 C       -14.1721045490        5.3162796545      -12.7220708992
 C       -14.4206497238        4.8983311311      -11.2540921686
 C       -14.7461085464        3.4201492516      -11.0784633292
 O       -13.9168586312        2.5209922300      -11.3114845857
 C       -16.0246631125        2.9542574838      -10.2407459056
 C       -15.7800104110        3.6540271254       -8.8201497064
 O       -14.8122897642        4.3818349921       -8.7283210824
 C       -16.6523889446        3.4710358294       -7.5465883660
 C       -17.3231407367        4.7993407030       -7.0382951308
 C       -18.8486401079        4.8900904997       -7.6007463766
 O       -19.3546718486        3.9793787624       -8.1787667939
 C       -19.4376773697        6.3710701458       -7.5371370139
 C       -18.5960205425        7.2416705187       -8.4984787451
 O       -17.6430339073        6.8855718375       -9.1062885876
 C       -18.9812631866        8.7402770166       -8.5824821847
 C       -20.9186849188        6.2851069890       -7.9166706093
 C       -19.2537200544        6.9295900569       -6.0645928390
 C       -17.2876892918        3.6582581857      -10.7982443656
 C       -16.0857153588        1.4294511715      -10.1514575717
 C       -11.4838229568        7.2711864769      -13.5714675122
 C       -13.1479340624        6.4848300175      -15.2125401101
 C        -7.4041546687        3.1867286205      -14.7597728515
 C        -8.0278927405        0.9151496273      -15.7415294942
 C       -10.3929118522        0.3760326041       -8.3756139272
 C        -8.2127845532       -0.7670941166       -9.0405974999
 C       -11.3821212187       -4.9783013613      -14.4025389206
 C       -10.2542662137       -6.8661741706      -13.2105706301
 C        -3.5250038386       -3.7050994227      -14.9704575271
 C        -2.4491381275       -5.9841210661      -14.2621603570
 C        -0.9870033622       -7.1285787362       -8.6298016618
 C        -1.7314475621       -5.3008182815       -7.1568112222
 C         5.7130251053       -3.7812052111       -6.5469082609
 C         5.2737325972       -2.7345179142       -8.9346395970
 C        10.5301318362       -1.4268331077      -10.3136381302
 C        11.4584128236       -2.9779817623      -12.1356446246
 C        14.9694865183       -4.6670518322       -6.0419378268
 C        14.5868402158       -7.1021088309       -6.6370856735
 C         9.7784160473       -5.4151658722       -1.9067658782
 C         8.1791885202       -4.9575742347       -3.7120871444
 H        11.7679592728       -3.6298252759       -2.2618362459
 H        10.5128148269       -2.4222671974       -2.1910729724
 H        11.7618030054       -2.3171648018       -3.4380212080
 H        10.8631442714       -8.2540020199       -3.6487824415
 H        11.5700818090       -6.8792600998       -2.7824417597
 H        12.0064861315       -7.7765496356       -5.6971343636
 H        13.3046492453       -8.0331687454       -4.4973277554
 H        14.4385047890       -4.9003936876       -8.8621418665
 H        13.4888431623       -3.6275820949       -8.3333625311
 H        11.7574651047       -5.8300539965       -9.7734230108
 H        12.6735518559       -4.8379491442      -10.7312870817
 H         7.5753780639       -2.9478014419      -11.3954169024
 H         8.2011754144       -2.5785922275       -9.7446589017
 H         7.7147652681       -5.4843040704      -10.4129685102
 H         6.2685171439       -4.6286249833      -10.6364847401
 H         2.9179321794       -4.4871536904       -7.1459384644
 H         3.3684417830       -6.0949375781       -7.1081466340
 H         1.8832298775       -6.7266878054       -8.8658255643
 H         2.0490162984       -5.0839595059       -9.6304843454
 H        -2.6093649782       -3.3834275644      -10.3225470419
 H        -3.3118613932       -4.7064291908       -9.2399643576
 H        -3.8780671667       -5.7183931096      -11.2388046662
 H        -2.2724970218       -5.8798239189      -11.7959145171
 H        -6.1063672508       -5.7053365959      -15.2745678985
 H        -6.2379482104       -4.1201454401      -14.6017974232
 H        -7.3726048343       -5.0705425539      -12.3901471066
 H        -7.6311803397       -6.6468149752      -13.0607929591
 H       -11.6435514124       -3.0462638922      -11.7891333166
 H       -10.4776598958       -2.7754651681      -12.8863137645
 H        -8.6621465899       -2.3966119727      -11.1478466988
 H        -9.9941409272       -2.6769709343       -9.9589670499
 H        -6.9635914630        0.7445052622      -10.5302348530
 H        -7.1295210264        2.3757579556       -9.9216941087
 H        -6.6132381885        2.5453440452      -12.1448037932
 H        -8.2811677746        3.1362341878      -11.8328721689
 H       -10.7671095245        2.0817695397      -16.6142099785
 H        -9.4071482898        3.2006735906      -16.5579613326
 H       -12.2544034972        3.3385386008      -15.3303253616
 H       -11.7337699614        4.2409473625      -16.7241287395
 H       -14.7978246154        4.7501089480      -13.3775649532
 H       -14.3708013697        6.4535736518      -12.8184335464
 H       -15.2608934137        5.4586886518      -10.8873444128
 H       -13.4740154899        5.1738663262      -10.7131546222
 H       -15.9023021208        3.2098036015       -6.7993531617
 H       -17.4345868511        2.7242028715       -7.6456485379
 H       -16.7121908031        5.6718440182       -7.3753763559
 H       -17.2825886306        4.6325262445       -5.9398931019
 H       -19.6470091120        8.9653374292       -9.4352440827
 H       -18.1991177133        9.3668473500       -8.8872989771
 H       -19.3512179421        9.1728471817       -7.6743690653
 H       -21.3454108369        7.3019918779       -7.8057777074
 H       -21.4790021528        5.4879813526       -7.3457824826
 H       -21.0216092894        6.0016004728       -8.9042869136
 H       -18.2612422977        7.0320327319       -5.5636458876
 H       -19.7786514259        6.4130123706       -5.3212612295
 H       -19.6976513289        7.9919461963       -6.0631309966
 H       -18.2717865422        3.1387249135      -10.6595190184
 H       -17.0770869817        3.9602330814      -11.8488207930
 H       -17.1906947004        4.6148018399      -10.2106261915
 H       -17.0697275862        0.9895238772       -9.9564783364
 H       -15.4393928579        1.0640949191       -9.3435432391
 H       -15.6446984509        0.8403428245      -10.9603534343
 H       -11.5241881445        8.1667702853      -14.1778723445
 H       -10.4182964247        7.2427245738      -13.4115610103
 H       -12.0077341743        7.5254949586      -12.6571965520
 H       -13.6957507539        5.6327605577      -15.6285759828
 H       -12.6320685678        6.8311557309      -16.0623393706
 H       -13.8854639051        7.1303513797      -14.7749086582
 H        -6.3491898644        3.1724996582      -14.8072591850
 H        -7.7337426903        4.0335332891      -13.9932779406
 H        -7.7552283458        3.7098752855      -15.6699424505
 H        -7.2477615702        0.1859351604      -15.4714205327
 H        -7.6088914537        1.5179649132      -16.5809134098
 H        -8.8856160255        0.3493021037      -16.0186168917
 H       -11.2070178178        0.9932706265       -8.7321440422
 H        -9.7386851226        1.1251371816       -7.8246456924
 H       -10.6578131140       -0.5090274376       -7.8791759574
 H        -8.4614344685       -1.8263452480       -8.9203594869
 H        -7.9415879846       -0.2767674240       -8.0692354981
 H        -7.3429579269       -0.8720234672       -9.6817767655
 H       -12.1517047989       -4.3647446932      -13.9782389633
 H       -11.8668763120       -5.8749582331      -14.6999876459
 H       -11.0041037860       -4.3978275410      -15.2165564656
 H       -11.2564747030       -7.0073112303      -12.8057904479
 H        -9.4862770626       -7.2241239930      -12.4844446145
 H       -10.1269059162       -7.4499068284      -14.0602216774
 H        -2.5298118236       -3.8165686304      -15.4504779963
 H        -3.4827472968       -2.8038601056      -14.3574592906
 H        -4.3844915078       -3.6390807422      -15.6453259273
 H        -1.3993868908       -5.5276440634      -14.1967471755
 H        -2.6549019892       -6.2591718237      -15.2769812753
 H        -2.5392672801       -6.8346591826      -13.6899452192
 H        -0.3738005955       -7.1584360939       -9.4584896348
 H        -2.0384157752       -7.4636283459       -8.7226958787
 H        -0.5295843939       -7.6852332464       -7.7222385132
 H        -2.0808584381       -4.2597198042       -7.0557911203
 H        -1.4011296542       -5.7196950947       -6.2247554517
 H        -2.5844868374       -5.8771179919       -7.4536658468
 H         6.1893395912       -4.7247875477       -6.2349365740
 H         4.6511336608       -3.6858688531       -6.1822722739
 H         6.4105332539       -2.9245626128       -6.3439075788
 H         4.2974061646       -2.8230937321       -9.5045385987
 H         6.0911364139       -2.3360779141       -9.5325590872
 H         5.1127389694       -1.9059827297       -8.1747254217
 H        11.4253822307       -1.2251495163       -9.7494501874
 H         9.6012773900       -1.3527926882       -9.6898266333
 H        10.3212387090       -0.7461823986      -11.1128120034
 H        11.0286636584       -2.2452824030      -12.8204068214
 H        11.5218023889       -3.9095588461      -12.6574925910
 H        12.5155718645       -2.7522351988      -11.9930081446
 H        15.6359794817       -4.4380014171       -6.8525656645
 H        15.7186771876       -5.0465563195       -5.3122103039
 H        14.4586839051       -3.8211647665       -5.5957820367
 H        15.1673589364       -7.4885160340       -5.8520126820
 H        15.1405537307       -6.9938253205       -7.5696569704
 H        13.9294712546       -7.9136507579       -6.7702529896
 H         9.1536260379       -4.7839078746       -1.2666692431
 H        10.8776136519       -5.2970896484       -1.6825647759
 H         9.4460785923       -6.4359637682       -1.8010622588
 H         7.7026957365       -5.8111768387       -3.3295428851
 H         7.8417174269       -4.9211107770       -4.7359271928
 H         7.8485164693       -4.1253987621       -3.0627072297
 Na        9.6636204367       -4.4873381822       -6.9994505750
 Na      -11.5701262906        2.0110345366      -11.7930627510
