232

 C        11.1499484818       -3.0203994179       -2.6308848517
 C        10.4456808061       -3.8185223097       -3.7520580539
 O        10.4768071225       -3.4115439308       -4.9290606547
 C         9.6040446978       -5.0974331119       -3.3038277587
 C        10.0215678557       -6.2226382121       -4.3208498839
 O         9.4149331777       -6.3008312356       -5.3909035284
 C        10.9752988129       -7.4094990972       -4.0781423504
 C        12.1964406428       -7.4338878406       -4.9592949027
 C        12.8055135313       -6.0280641397       -5.0838426153
 O        12.5406313124       -5.1320722655       -4.3477548848
 C        13.8516098267       -5.8487402601       -6.2905606670
 C        12.8863042350       -5.5678714004       -7.5002660171
 O        11.6865641644       -5.8456559307       -7.4552763555
 C        13.5416350449       -4.8638924454       -8.6636327797
 C        12.6374516528       -4.4482500798       -9.8537251875
 C        11.5267131638       -3.3691626708       -9.6375974427
 O        11.0884276639       -3.0816123624       -8.5420887650
 C        10.8473536002       -2.8318908048      -10.9361231955
 C         9.5510228604       -3.8388241081      -11.0400359560
 O         9.7006005328       -4.9499300442      -11.5260728458
 C         8.2703280268       -3.2721319101      -10.5588551205
 C         7.1016030584       -4.2343742156      -10.2779762055
 C         6.7632472143       -4.2436855268       -8.6883693527
 O         7.6786675915       -4.5682572895       -7.9292129228
 C         5.3048523312       -3.9878206775       -8.2822369630
 C         4.2354325450       -5.2393336345       -8.8139379100
 O         4.3975758486       -5.7990517885       -9.8473943042
 C         3.1571858893       -5.4618296648       -7.8301409886
 C         1.8404341741       -6.0302226909       -8.4467976394
 C         0.6157625763       -5.5185558793       -7.6797105767
 O         0.7300501123       -4.8651065865       -6.6666699675
 C        -0.7554410164       -5.8239791769       -8.2023075170
 C        -0.9299970471       -4.9242104356       -9.5411202592
 O         0.0103288220       -4.4332685854      -10.1271533779
 C        -2.3791536092       -4.6758931818      -10.0394919336
 C        -2.8237361989       -5.4105441593      -11.3227944375
 C        -3.0890756314       -4.3883675525      -12.4795495854
 O        -3.1067965652       -3.2079769904      -12.1231392966
 C        -3.5029151842       -4.8564832940      -13.8353632106
 C        -4.8646961648       -5.6871787761      -13.8317641676
 O        -4.8812767143       -6.8377552640      -13.4102639618
 C        -6.2270809346       -5.0184998363      -14.2156518336
 C        -7.3998207308       -5.6371086969      -13.5258086731
 C        -8.7817513934       -5.0370529199      -13.9986903100
 O        -8.8018163072       -4.4284697702      -15.0206029446
 C       -10.1361911734       -5.3378622541      -13.3137665953
 C       -10.1233886403       -4.3753413663      -12.0381870642
 O        -9.8857881639       -4.8437091860      -10.9235529441
 C       -10.3283159574       -2.8992732114      -12.2248763939
 C        -9.9064301082       -2.2579330408      -10.9379720672
 C       -10.3082476412       -0.7945274384      -10.7486744071
 O       -11.3695892249       -0.2646331804      -11.1405856510
 C        -9.4455174413       -0.0061970988       -9.7089203535
 C        -9.0222090394        1.4534684678      -10.3293860255
 O        -9.8751656388        2.3203948105      -10.5010277215
 C        -7.5780786201        1.6830643420      -10.6855380842
 C        -7.4821111076        2.3972842892      -12.0610297257
 C        -7.9627650738        1.4485598699      -13.2070188209
 O        -7.9660716402        0.2612322770      -12.9339124331
 C        -8.3488526145        1.8912636405      -14.6609710373
 C        -9.8149404332        2.2881246546      -14.6140462928
 O       -10.3110844293        2.1872684891      -13.4840629868
 C       -10.5226200010        2.7354256337      -15.9186783636
 C       -11.5906605976        3.7652961887      -15.6999721225
 C       -11.0175600192        4.9276021897      -14.8562026890
 O        -9.8426549221        5.2563307408      -14.6950746901
 C       -12.1251320163        6.0040732241      -14.3336879543
 C       -12.7229082279        5.2611288728      -13.0225991565
 O       -11.9699381506        4.5931093089      -12.3499751796
 C       -14.2327975874        5.4354835096      -12.8439183178
 C       -14.6665909197        5.0984556316      -11.3692340521
 C       -14.7822909697        3.5826821176      -11.0356547667
 O       -13.9944550075        2.8061214198      -11.5740931436
 C       -15.9258015000        3.0073301490      -10.0488209322
 C       -15.7127508155        3.4626985195       -8.5382717798
 O       -14.7659695196        4.0743558871       -8.1053769496
 C       -16.8097914970        2.9895703164       -7.5656211766
 C       -17.4471909295        4.1220931149       -6.8031048913
 C       -18.4859631862        4.8025733960       -7.6660780386
 O       -18.8573962590        4.3405325789       -8.6824815688
 C       -19.0437278557        6.1563607223       -7.2247954453
 C       -18.4496090984        7.1758271164       -8.3746460108
 O       -17.7218536145        6.7944470209       -9.2868792782
 C       -18.9808248856        8.6389208151       -8.4769196247
 C       -20.6474967825        6.0967302891       -7.4642362223
 C       -18.6264140879        6.6479815741       -5.8588505285
 C       -17.2103173406        3.5925236942      -10.6963045833
 C       -15.8207306469        1.4638573049      -10.0818106461
 C       -11.5225259887        7.3864329040      -13.8029645812
 C       -13.2246752292        6.2188573231      -15.4054980162
 C        -7.3867843791        2.9885496759      -15.1649700332
 C        -8.1253948912        0.7087222505      -15.5950430772
 C       -10.5306286008        0.2120729719       -8.5379963747
 C        -8.1791418916       -0.6361621594       -9.0505083274
 C       -11.2721951573       -5.0250159630      -14.2922704831
 C       -10.1870083994       -6.8716996907      -12.9288814487
 C        -3.6423816493       -3.6195135696      -14.8312541731
 C        -2.3169692119       -5.7528655219      -14.3746721910
 C        -0.8020217021       -7.3465722790       -8.7148666351
 C        -1.7577180778       -5.6550027620       -7.1109710936
 C         5.3601514581       -3.8648626900       -6.6902795943
 C         4.6222378128       -2.7576448033       -8.8422190008
 C        10.4334378955       -1.3123265565      -10.7378547372
 C        11.7047837226       -2.9871560315      -12.1765943589
 C        14.8611962462       -4.6903543371       -5.9112899791
 C        14.6028775950       -7.1702523117       -6.7088352299
 C         9.7928458301       -5.5155579715       -1.7844575888
 C         8.1289775121       -4.7663507700       -3.5480153507
 H        11.9753344329       -3.6283965450       -2.1404788554
 H        10.4171548237       -2.8819584409       -1.7885851329
 H        11.5572567551       -2.0345645728       -2.9677071394
 H        10.3459850028       -8.2757164995       -4.1951778310
 H        11.3204327112       -7.5639524536       -3.0633017051
 H        11.9889738804       -7.9864773998       -5.9736321479
 H        12.8553782175       -8.1611844522       -4.5381662561
 H        14.4265954024       -5.3234297701       -9.0508127428
 H        13.9936426631       -4.0215500535       -8.1878489109
 H        12.0046476837       -5.2883038658      -10.2747448514
 H        13.2934530680       -4.2646254192      -10.7030814613
 H         8.0658632457       -2.4663618681      -11.3346367167
 H         8.4191035041       -2.7473342310       -9.5806511290
 H         7.3760116815       -5.3473658688      -10.3901083100
 H         6.1912762196       -4.0057289176      -10.9081622665
 H         2.9344425278       -4.5613163114       -7.2427895452
 H         3.4404736884       -6.2490522001       -7.1144596084
 H         2.0092392687       -7.0770524139       -8.3692357781
 H         1.6515378057       -5.6940208468       -9.5023617812
 H        -2.5176823413       -3.5697908983      -10.2040776133
 H        -2.9874359846       -4.9047582479       -9.2285684219
 H        -3.8101013698       -5.9098721257      -11.0757335819
 H        -2.2829521406       -6.3022813000      -11.6537513610
 H        -6.4412055728       -5.1402222897      -15.2781198162
 H        -6.1297441765       -3.9727776275      -14.0335836921
 H        -7.3671083288       -5.5839504763      -12.4424108810
 H        -7.3645608227       -6.7302974713      -13.6890508365
 H       -11.3580518833       -2.6582675810      -12.4490628671
 H        -9.8350623599       -2.5882185655      -13.1934086739
 H        -8.8084987385       -2.3852290180      -10.8917547287
 H       -10.2693362724       -2.9156087159      -10.1457063341
 H        -7.0634687309        0.7093464337      -10.7349623945
 H        -7.1814310882        2.1851721504       -9.7917620327
 H        -6.4509747619        2.8102542673      -12.2399422367
 H        -8.2021708588        3.1493942022      -11.9904607154
 H       -10.8391942100        1.7873814306      -16.4079588845
 H        -9.8103948974        3.1187211453      -16.5520673594
 H       -12.5185137266        3.4699735332      -15.1576529071
 H       -12.0240429123        4.2872595920      -16.5892295262
 H       -14.7745879277        4.8479959948      -13.6019559260
 H       -14.4228744147        6.5371726972      -13.0673746651
 H       -15.5762140357        5.6839603434      -11.1848228804
 H       -13.9246708813        5.5146396246      -10.6417493602
 H       -16.2951353248        2.3290497354       -6.8496795220
 H       -17.5898113433        2.4536071362       -8.1532121915
 H       -16.6537102009        4.6941582449       -6.4205655424
 H       -17.9704568062        3.6702378141       -5.9592568217
 H       -19.9732630985        8.8801844840       -7.9737140759
 H       -19.3063478650        8.7923444141       -9.4795135458
 H       -18.2777047778        9.4361838621       -8.2871097661
 H       -21.1272671413        7.1001755644       -7.4198809026
 H       -21.0906292519        5.4181937624       -6.7078367457
 H       -20.7965456215        5.6324192841       -8.4055579123
 H       -17.5830602550        7.0374529542       -5.9309586868
 H       -18.6950121619        6.0816526926       -5.0495213696
 H       -19.1705697112        7.5231026221       -5.5610667490
 H       -18.1027462259        3.1879097116      -10.3183791422
 H       -17.0751131535        3.3408360062      -11.7030205007
 H       -17.1152848941        4.6563599242      -10.6252537478
 H       -16.3528339778        0.9257909292       -9.2766112305
 H       -14.8422823684        1.0922186802      -10.0281153321
 H       -16.1958462780        1.0564927441      -11.0211436785
 H       -11.4990627304        8.1340340955      -14.6222679456
 H       -10.4798022004        7.4570516936      -13.4595271253
 H       -12.0940125714        7.7688684247      -12.9540913220
 H       -13.8860391900        5.2943892706      -15.5704590138
 H       -12.7528235510        6.5296835795      -16.3171732895
 H       -13.9019131902        7.0545307197      -15.1038564275
 H        -6.4735249463        2.7166352110      -14.8897417652
 H        -7.4910979440        4.0258922191      -14.7681336009
 H        -7.3980546145        3.0920853362      -16.1701455493
 H        -7.0561483630        0.6208442166      -15.9187818030
 H        -8.6974686263        0.8740064876      -16.5101127511
 H        -8.3965491374       -0.1825705249      -15.1526185272
 H       -11.3378154205        0.7282319130       -8.9852440495
 H       -10.0850567721        0.7511039505       -7.6633285413
 H       -10.7873084868       -0.8146633729       -8.2686624687
 H        -8.4827740688       -1.3557756380       -8.3469783672
 H        -7.6772328254        0.2397239938       -8.5653438546
 H        -7.5067187285       -1.1081082719       -9.7256098785
 H       -12.1894792010       -5.4641003405      -13.9825108510
 H       -11.1422664505       -5.3634747678      -15.3761886700
 H       -11.3869504721       -3.9029679968      -14.2918648483
 H       -10.9699948754       -7.0919671916      -12.1763780854
 H        -9.2250678418       -7.2814593508      -12.6169676799
 H       -10.4127771466       -7.4068830463      -13.8118361108
 H        -4.4538855781       -3.6975704155      -15.5259735631
 H        -2.6804502035       -3.4753316970      -15.3264777566
 H        -3.8335680358       -2.7805999910      -14.1717417820
 H        -1.2996668465       -5.2590116722      -14.5122237296
 H        -2.6733206583       -6.0782635954      -15.4105537626
 H        -2.3224063081       -6.6062285694      -13.7359340107
 H         0.0566445640       -7.4242934067       -9.3082715511
 H        -1.7001116905       -7.5359931015       -9.3055868771
 H        -0.7142337217       -7.9717240743       -7.7833074964
 H        -1.8639035071       -4.5739550385       -6.8558066407
 H        -1.2469745308       -5.9536794766       -6.1829955665
 H        -2.7145276522       -6.1032288911       -7.2880360604
 H         5.5840406309       -4.8291964846       -6.3740487545
 H         4.4036591164       -3.5099019933       -6.2201691618
 H         6.0819920175       -3.1630381924       -6.4806565339
 H         3.7372597997       -2.5556597056       -8.3298859233
 H         4.5002065989       -2.8462616091       -9.9278444395
 H         5.2210488042       -1.8754249467       -8.7200826547
 H        10.8353572345       -0.8351657569      -11.5802172285
 H        10.8718754546       -0.8689507232       -9.8504769549
 H         9.3782303543       -1.1445471003      -10.5490853919
 H        11.1804020757       -2.4209730030      -12.9560621333
 H        11.7045550295       -4.0564626131      -12.4969855666
 H        12.7673756679       -2.8095565454      -12.2304877305
 H        15.1915883522       -4.0982083476       -6.7939360887
 H        15.7991309370       -5.1139077406       -5.5468170444
 H        14.4635505686       -4.1016987195       -5.1345764789
 H        15.1151910541       -7.8138298798       -5.9469886894
 H        15.3701298360       -7.0576209277       -7.5306410156
 H        13.8025733471       -7.8561977500       -7.0245806848
 H         9.3897580066       -4.7267928111       -1.2132290417
 H        10.8168376119       -5.8530866629       -1.5948961855
 H         9.1916561201       -6.4150293799       -1.6042973378
 H         7.5655495210       -5.7030204200       -3.5969340692
 H         7.9492665062       -4.3166622738       -4.5407579048
 H         7.7921088983       -4.1648514537       -2.6925042544
 Na        9.9335514336       -4.5023901429       -6.8701701446
 Na      -11.8507660598        2.4550509514      -11.3611981979
