232

 C        11.0700790653       -3.0157297692       -2.6080499585
 C        10.4849832880       -3.9338910549       -3.6896413691
 O        10.5052584406       -3.4985333826       -4.8696646214
 C         9.6297294445       -5.1342592144       -3.3217465375
 C         9.9151432577       -6.3311166499       -4.3007740613
 O         9.2069803466       -6.2400461764       -5.3267988705
 C        10.9189786313       -7.4555156831       -4.0257879301
 C        12.1352405793       -7.5073992984       -4.9740780058
 C        12.8220122128       -6.2358162802       -5.1328543823
 O        12.4771108545       -5.3074358777       -4.3895038214
 C        13.7918570476       -5.9133795350       -6.3167969925
 C        12.9120034862       -5.4639127612       -7.4732009140
 O        11.7193945806       -5.8033636022       -7.5579883849
 C        13.6326980444       -4.7731336701       -8.7292975213
 C        12.6920016430       -4.3370836026       -9.9211004725
 C        11.6060934082       -3.3043450489       -9.6697071045
 O        11.1585950555       -2.9542721315       -8.6056594482
 C        10.8888693392       -2.8620020085      -11.0281490709
 C         9.6390926660       -3.8522405896      -11.1058430505
 O         9.7924311567       -4.9336776074      -11.5699971354
 C         8.3043951634       -3.1864790021      -10.5385021689
 C         7.0819863191       -4.1337456904      -10.3137759856
 C         6.6756604802       -4.2435491230       -8.7749190048
 O         7.5598296782       -4.3011949791       -7.9577776660
 C         5.2185310958       -4.0526017902       -8.3359944104
 C         4.2526940340       -5.1987787647       -8.7498408376
 O         4.3984543159       -5.6909828254       -9.8162042979
 C         3.1919840053       -5.5803844023       -7.7677215376
 C         1.8648794585       -6.1990712219       -8.4128134938
 C         0.6446007374       -5.4996334457       -7.6838437569
 O         0.7802604812       -4.8142618220       -6.7080549337
 C        -0.8077891958       -5.8875411922       -8.1794610613
 C        -0.9347435609       -4.9450791612       -9.4661040694
 O         0.0393086772       -4.3525680527       -9.8975338971
 C        -2.3588497354       -4.7575760749      -10.0331449846
 C        -2.7098687162       -5.4199949598      -11.3316758555
 C        -3.1439411927       -4.4140600955      -12.4443581415
 O        -3.1591998881       -3.2363754401      -12.1828678534
 C        -3.5745757486       -4.8966608657      -13.8902223616
 C        -4.9001611754       -5.7207562294      -13.7738993049
 O        -4.9008905027       -6.9208265682      -13.5382471209
 C        -6.1894068665       -4.9655736733      -14.0590742318
 C        -7.4485489148       -5.6994209359      -13.5522305576
 C        -8.7326039578       -5.0101109310      -14.0910066421
 O        -8.6820776860       -4.3331398616      -15.1015280219
 C       -10.0979298145       -5.3311158051      -13.2916000972
 C       -10.0480269262       -4.3697990258      -12.0392187842
 O        -9.8491294555       -4.8051449712      -10.9486199668
 C       -10.2975306183       -2.8156476634      -12.1999504482
 C        -9.8835455041       -2.0486324159      -10.9303148256
 C       -10.3734480322       -0.6910067029      -10.7198849587
 O       -11.3628469932       -0.1652417223      -11.1818713936
 C        -9.4867796596        0.0950186904       -9.6289664210
 C        -9.0232784758        1.4166024021      -10.3472476789
 O        -9.8648862287        2.2538541783      -10.6188975648
 C        -7.5892375355        1.6845532706      -10.7634807495
 C        -7.5576768053        2.4193848327      -12.0799731741
 C        -7.8209914243        1.3793215262      -13.1845195050
 O        -8.0656358197        0.2326668798      -12.8802683809
 C        -8.2078409120        1.8216638530      -14.6454719043
 C        -9.7626647219        2.2769232111      -14.6113978957
 O       -10.4782150117        2.2464675239      -13.5514163092
 C       -10.5065301492        2.7060337614      -15.8608195613
 C       -11.5605600812        3.7220024137      -15.5594347189
 C       -11.0388411812        5.1046317703      -15.0180644746
 O        -9.8292750091        5.1709104162      -14.8368994231
 C       -12.1345669113        6.0093704299      -14.4224581041
 C       -12.7453873045        5.2618976629      -13.0946739073
 O       -11.9527683382        4.6891431219      -12.3540728843
 C       -14.1955181928        5.5329511299      -12.7257480296
 C       -14.6833285977        5.0563147788      -11.3070548311
 C       -14.7497691781        3.6402810642      -11.0372936015
 O       -14.0371996421        2.7808104661      -11.6243511634
 C       -15.8144069686        2.9961113945      -10.1076753713
 C       -15.7390964842        3.3487173623       -8.4846623277
 O       -14.8141627668        4.0172500799       -8.0880474376
 C       -16.8539865852        2.7533631177       -7.4742822984
 C       -17.5248817963        3.9278206960       -6.7090656637
 C       -18.4977661436        4.8093185481       -7.6432426873
 O       -18.8298267052        4.3401697227       -8.7384337754
 C       -18.9087115867        6.2144110583       -7.3085132486
 C       -18.5242392979        7.1900835629       -8.4894617577
 O       -17.7130804845        6.7969781481       -9.2247275748
 C       -18.9937616869        8.5938671957       -8.3501514709
 C       -20.4997751066        6.1347402680       -7.2564532629
 C       -18.3996772104        6.5874553634       -5.8970605269
 C       -17.2135224491        3.5071888158      -10.5773444971
 C       -15.6693694234        1.4520498116      -10.1242501881
 C       -11.5964852368        7.2972940840      -13.9137369452
 C       -13.2673777666        6.2633261179      -15.4593677912
 C        -7.3266974497        3.0818357121      -15.2801061535
 C        -8.2134324101        0.5570692900      -15.5604272148
 C       -10.6338288117        0.2451837349       -8.5764954590
 C        -8.1914168076       -0.5435299134       -9.1313338321
 C       -11.2451305375       -5.0589722811      -14.2185467919
 C       -10.1427977347       -6.7344159190      -12.6944728625
 C        -3.6287024940       -3.5400348537      -14.7663124588
 C        -2.3616759064       -5.7297726605      -14.4103367767
 C        -0.8956074168       -7.4654425621       -8.6603978762
 C        -1.8737934314       -5.8499890624       -7.1006392485
 C         5.2847877163       -3.9164662007       -6.7431595161
 C         4.5809788028       -2.7182688557       -8.8585014057
 C        10.4892700857       -1.3213481392      -10.8403509214
 C        11.6947223884       -2.9532403682      -12.3019671064
 C        14.8210081376       -4.8050708937       -5.9461288450
 C        14.6182535318       -7.1571980922       -6.5673838394
 C         9.7692879063       -5.5192714480       -1.7630903581
 C         8.2446236272       -4.6273421003       -3.5587825746
 H        12.0384963564       -3.5011571257       -2.2114704911
 H        10.4229042292       -2.9955648614       -1.6741602024
 H        11.3433947710       -1.9433726689       -2.9844738353
 H        10.4560958969       -8.3953243446       -3.8309391243
 H        11.3609393386       -7.2468678041       -2.9973382982
 H        11.8147798454       -7.6808930007       -6.0525567073
 H        12.6750888353       -8.5001756776       -4.8130300261
 H        14.3082956444       -5.4924141688       -9.2212964580
 H        14.3308093834       -4.0683345894       -8.4220854942
 H        12.2435042203       -5.2178147415      -10.5271676119
 H        13.3864104615       -3.9189971288      -10.6633270787
 H         8.0460921156       -2.4839797888      -11.3267474282
 H         8.3883837626       -2.5569962447       -9.5800596797
 H         7.0231281505       -5.1820063918      -10.7764575627
 H         6.2803515674       -3.5278171611      -10.7214633153
 H         2.8191172266       -4.6404721565       -7.3655315132
 H         3.4904337158       -6.2043798313       -6.9301022851
 H         1.8784009469       -7.2919759654       -8.2952952390
 H         1.7385202941       -5.9152064722       -9.4500213219
 H        -2.3973761714       -3.6693592550      -10.1453784629
 H        -3.0899526726       -4.9274056917       -9.0633770609
 H        -3.3766948566       -6.2303902139      -11.2340923252
 H        -1.8117522671       -5.9989492815      -11.7360455491
 H        -6.3499089894       -4.8301154178      -15.1492736291
 H        -6.0672344354       -3.9761475537      -13.6079963324
 H        -7.5826114623       -5.7903993858      -12.4118235319
 H        -7.4288034664       -6.8392007286      -13.8801824768
 H       -11.2564268934       -2.4143266533      -12.5784010114
 H        -9.6553502770       -2.6595249728      -13.0111343023
 H        -8.7848369846       -2.1300266699      -10.8452552391
 H       -10.2149086747       -2.6152027055      -10.0973905461
 H        -6.9789296429        0.8753445966      -10.8606516375
 H        -7.1850231918        2.2356533562       -9.9061363611
 H        -6.5220688513        2.7874888834      -12.1957893317
 H        -8.2991720323        3.1971831494      -12.1108051475
 H       -10.9777254280        1.8344505504      -16.1499479617
 H        -9.8720691330        2.9625490800      -16.7650575213
 H       -12.1459465851        3.4850976204      -14.6215881005
 H       -12.3573779972        3.7660054587      -16.3149724543
 H       -14.8151542098        5.0243228548      -13.5036338320
 H       -14.3734621915        6.6827026650      -12.8822880360
 H       -15.6609255347        5.5165637565      -11.1611507666
 H       -14.0804245820        5.4828029929      -10.4160462364
 H       -16.2965606165        2.0753284659       -6.7838834890
 H       -17.6061697454        2.2032854612       -8.0615217283
 H       -16.6431128718        4.4323701871       -6.2698644462
 H       -18.0921063437        3.5281534383       -5.8757480259
 H       -19.4621345954        8.8708659104       -7.4205687985
 H       -19.7641015392        8.8588035664       -9.0267834980
 H       -18.1932128212        9.2675905684       -8.5953324198
 H       -20.9621244804        7.1229687182       -7.2260039714
 H       -20.7185339360        5.6130111257       -6.2879794694
 H       -20.8767735071        5.5581377535       -8.0612504095
 H       -17.3702612193        6.6336832786       -5.7830929228
 H       -18.9085859627        5.9671251105       -5.0920937451
 H       -18.7447339779        7.5336203399       -5.5126637018
 H       -17.9792387508        2.9241641362      -10.0593262324
 H       -17.2443230488        3.2622813854      -11.6328423942
 H       -17.2414476235        4.5854986113      -10.4232929374
 H       -16.2368973034        1.0103412074       -9.3400997993
 H       -14.6936098424        0.9480834554      -10.0295663967
 H       -16.1237136853        1.0681430486      -11.0216804011
 H       -11.2249665071        7.9330825471      -14.7184775365
 H       -10.8058526345        7.3172241112      -13.1506441526
 H       -12.4067217976        7.7897638584      -13.3606104219
 H       -14.1016529856        5.5406293621      -15.4396309031
 H       -12.7810546014        6.3845003795      -16.4527284356
 H       -13.6810201431        7.2803463251      -15.3015438998
 H        -6.2497395649        2.9984181429      -15.2372372918
 H        -7.4497027994        4.0160471282      -14.8203952307
 H        -7.6063560219        3.2348313681      -16.3440463748
 H        -7.2983667000        0.5292807234      -16.0664391961
 H        -8.9459366694        0.6684980653      -16.3443421426
 H        -8.3462594267       -0.3936207361      -15.0582532203
 H       -11.2546075223        1.0363542393       -8.9813377440
 H       -10.2241791615        0.4208744134       -7.5233442129
 H       -11.1227242898       -0.6472922607       -8.5731382952
 H        -8.3722856753       -1.5566161407       -8.7282768973
 H        -7.6081846632        0.0706708691       -8.4819058509
 H        -7.6735655632       -0.6394310034      -10.0576007201
 H       -12.0836623780       -5.7969292636      -14.2182563536
 H       -10.9070447845       -5.0117339867      -15.2284234102
 H       -11.5980706032       -4.0534989405      -14.0513380090
 H       -11.0456267744       -6.8677077910      -12.1625243225
 H        -9.3030900083       -6.9445691320      -12.0247011763
 H       -10.0922737901       -7.4494157395      -13.4542716318
 H        -4.6460899585       -3.1512241313      -15.0486379679
 H        -2.9712136573       -3.5679829234      -15.6021183521
 H        -3.2776091472       -2.8286451114      -14.0364494096
 H        -1.2811730901       -5.3225217170      -14.3187447795
 H        -2.5627107560       -5.8749999791      -15.4630850906
 H        -2.5495908177       -6.6845698848      -13.9109271130
 H        -0.1695774782       -7.5705853902       -9.4410107693
 H        -1.8840498691       -7.8605228306       -8.9470338414
 H        -0.4185496609       -7.8959413734       -7.7353905005
 H        -2.0839901132       -4.8442274817       -6.7793553883
 H        -1.5382677318       -6.2619744157       -6.1994377025
 H        -2.7728874242       -6.2677434130       -7.5266581249
 H         5.0891238269       -4.8547835675       -6.2818727306
 H         4.5056721542       -3.2669505280       -6.4648033110
 H         6.2032377945       -3.3577003765       -6.4537291996
 H         3.9784671060       -2.1197994404       -8.1137030671
 H         4.1154021608       -2.8282443312       -9.7717229041
 H         5.4218931027       -2.0409370306       -9.0740885495
 H        10.6351233082       -0.7907407185      -11.7499443278
 H        11.1855936391       -0.9054095617      -10.0901939161
 H         9.5723681623       -1.1570815967      -10.3925521902
 H        11.1332115044       -2.4029225153      -13.0592149822
 H        11.8070807155       -3.9576725238      -12.6212043956
 H        12.7357143795       -2.6213605275      -12.3717445066
 H        15.3362262474       -4.4509212325       -6.7851541648
 H        15.5629426470       -5.0978398561       -5.1775176636
 H        14.2085996932       -4.0306969381       -5.4715116817
 H        15.2556391933       -7.4681440426       -5.7721373659
 H        15.3588533243       -6.9863093362       -7.3798004583
 H        14.0011379737       -8.0295137470       -6.7922827646
 H         9.2639231937       -4.7119601019       -1.2217629137
 H        10.8140612652       -5.7600856970       -1.5080074016
 H         9.2687267132       -6.4461211621       -1.5836854162
 H         7.5467744699       -5.4329367885       -3.3581983582
 H         8.0934415109       -4.3454684882       -4.6132973636
 H         8.0758616656       -3.7726178943       -2.8397246981
 Na        9.9577182115       -4.4009820655       -6.9068273826
 Na      -11.9299614627        2.3948954002      -11.2394068607
