232

 C        11.0930175134       -3.0006757418       -2.5783668500
 C        10.5250358526       -3.9119136089       -3.6659637317
 O        10.5722484332       -3.5634482230       -4.7898635171
 C         9.5538571650       -5.1111472099       -3.3051756864
 C         9.7995865580       -6.3426630571       -4.3070127202
 O         9.2528579735       -6.3779306027       -5.3767228442
 C        10.8093984014       -7.4407679280       -3.9167791595
 C        11.8350131898       -7.6127503938       -5.0945585130
 C        12.6794207490       -6.2525716335       -5.1946047049
 O        12.5440616034       -5.3921768020       -4.3098967415
 C        13.8043959399       -5.9671214131       -6.3243689764
 C        12.9524824512       -5.4878827684       -7.6396497363
 O        11.7793091337       -5.7020199694       -7.6819590879
 C        13.6409897395       -4.6869145555       -8.7478472811
 C        12.7797239229       -4.3324286691       -9.9674558005
 C        11.6488111954       -3.3258106232       -9.7862489392
 O        11.2697555106       -2.9079432401       -8.6724963968
 C        10.9003713919       -2.8040238408      -11.0675086307
 C         9.5859998458       -3.7219153978      -11.1457146367
 O         9.7930068369       -4.8570608543      -11.5246871021
 C         8.2666279443       -3.1883521999      -10.5605084454
 C         7.0184644819       -4.0820651956      -10.3456283197
 C         6.6836201224       -4.0688256181       -8.8227331266
 O         7.6209920860       -4.0963807867       -8.0105703532
 C         5.2243139639       -4.0029644901       -8.2853154004
 C         4.2687372063       -5.1688431821       -8.7249998412
 O         4.4024068944       -5.6380099140       -9.8749143470
 C         3.1996758484       -5.6541762239       -7.6629094776
 C         1.8979998120       -6.2470046763       -8.2786184531
 C         0.6741610173       -5.7291307263       -7.5745248709
 O         0.7683580505       -4.7843547647       -6.7971760025
 C        -0.7434643622       -6.1088575233       -8.1656870343
 C        -1.0549288118       -5.0223219272       -9.3413547792
 O        -0.0851743727       -4.3817873147       -9.6612787090
 C        -2.4579754444       -4.7872835039      -10.0261647177
 C        -2.4896682540       -5.3859370512      -11.4227249703
 C        -3.2089735697       -4.4113183420      -12.3259798626
 O        -3.2512982498       -3.2320428104      -12.0883220192
 C        -3.5548655295       -4.9106169512      -13.8868793962
 C        -4.9025103169       -5.6911838687      -13.8118016466
 O        -4.8057830342       -6.8733994911      -13.6596852099
 C        -6.1854619386       -4.8708132743      -13.8875257779
 C        -7.4238571116       -5.7702280630      -13.5792438302
 C        -8.6712835112       -5.0862469573      -14.1196705088
 O        -8.6684844679       -4.2701576643      -15.0469130583
 C       -10.0044748496       -5.2550402592      -13.2863157373
 C        -9.9588564986       -4.3135936563      -12.0750318939
 O        -9.8091422746       -4.6991304816      -10.9195731831
 C       -10.2673430251       -2.7625220663      -12.2886409730
 C        -9.8346392208       -2.0066360315      -10.9999224716
 C       -10.3009385986       -0.6031416818      -10.8111777834
 O       -11.2605724799       -0.0847049851      -11.3094237509
 C        -9.5281083299        0.2265774103       -9.6805375679
 C        -9.0910514740        1.5609311238      -10.3147407753
 O        -9.8903906447        2.3849613458      -10.6969175749
 C        -7.5519176117        1.8178831718      -10.7683590988
 C        -7.5714874705        2.4296515154      -12.2100195799
 C        -7.9198021988        1.3562908440      -13.1926986469
 O        -8.0788268253        0.2160604022      -12.8523387525
 C        -8.3058479286        1.7920894797      -14.6994621712
 C        -9.7896098249        2.3031178331      -14.5519085006
 O       -10.4016762903        2.2285902802      -13.5237763102
 C       -10.4856510351        2.6506235846      -15.8896892040
 C       -11.6440278989        3.5114894036      -15.4808458833
 C       -11.0681029937        5.0262274331      -14.9272401466
 O        -9.9154112471        5.3052618016      -15.0174453651
 C       -12.2171241882        6.0459819351      -14.3951191143
 C       -12.7135894836        5.3101069377      -13.0893365590
 O       -11.9374442263        4.7245110675      -12.3785008115
 C       -14.2043143248        5.5644076076      -12.6147444467
 C       -14.6356716863        5.1212304144      -11.1897941532
 C       -14.6617286646        3.5653366349      -10.9756882706
 O       -14.0851739163        2.8276577389      -11.7146915484
 C       -15.8342455723        2.8810307937      -10.0341817738
 C       -15.7613152782        3.2874770588       -8.4981774929
 O       -14.8703433647        3.9709617969       -8.0355458325
 C       -16.7744773465        2.7190508302       -7.5887373284
 C       -17.5672521271        3.7905219140       -6.7941943450
 C       -18.4336312752        4.7014656279       -7.6500456310
 O       -18.9580381467        4.2228934584       -8.6783345241
 C       -18.8648144780        6.0954624695       -7.1648680248
 C       -18.3717573045        7.2196657306       -8.3374169307
 O       -17.6952217505        6.8661200998       -9.3052247161
 C       -18.9850252912        8.6029803488       -8.2493941634
 C       -20.4395052693        6.1879468687       -6.9790054644
 C       -18.1831636780        6.6646874089       -5.9017721964
 C       -17.2051242668        3.2379642300      -10.6344107147
 C       -15.6459716531        1.4022570357      -10.1730794859
 C       -11.5523289002        7.3309701955      -14.0094788756
 C       -13.3056058442        6.2647266880      -15.5348077654
 C        -7.4650992285        2.8964250559      -15.1912211517
 C        -8.2267488970        0.5645729972      -15.5803646450
 C       -10.5440539652        0.4865756768       -8.4076143117
 C        -8.3565717046       -0.6878687626       -9.0368157723
 C       -11.3084183792       -5.0401881725      -14.1868358898
 C       -10.0638314316       -6.6357119579      -12.6020373804
 C        -3.6495094707       -3.6340539900      -14.7615497392
 C        -2.4477790078       -5.8096867949      -14.4892003408
 C        -0.8499422603       -7.5341478568       -8.7425803593
 C        -1.9519316071       -5.8480823210       -7.1239718480
 C         5.2060243837       -3.9566721712       -6.6718148664
 C         4.6378329533       -2.6914827525       -8.9621515734
 C        10.6187104867       -1.2461476500      -10.9039972758
 C        11.6950208519       -2.9956821824      -12.3909427772
 C        14.7537327802       -4.8374772677       -5.8265891537
 C        14.6849020611       -7.2694117972       -6.5827535392
 C         9.8400569573       -5.6022487286       -1.8120937779
 C         8.1355355854       -4.4674273554       -3.4708843087
 H        12.0402331555       -3.4088982879       -2.2150955163
 H        10.4728473929       -3.0109785500       -1.6555252221
 H        11.2772974921       -1.9995618117       -2.9531103433
 H        10.2539748720       -8.3735130204       -3.6319763055
 H        11.3722115898       -7.2785237615       -2.9716914462
 H        11.4354905704       -7.9637873198       -5.9960074021
 H        12.5216032502       -8.5089871949       -4.8466937703
 H        14.4841553623       -5.2268474947       -9.2166672385
 H        14.2067266673       -3.8800002690       -8.2041957264
 H        12.5113703042       -5.2397570926      -10.5111598133
 H        13.5221610560       -3.8169000707      -10.6583949154
 H         8.0435695575       -2.2226466573      -11.0239101217
 H         8.5513217641       -2.8929378207       -9.5378679541
 H         7.1405124768       -5.1142705430      -10.5128666050
 H         6.1891060628       -3.7124844380      -10.9141940521
 H         2.8572149488       -4.8921481048       -6.9662839399
 H         3.6398225407       -6.4952901976       -7.1348150651
 H         1.9157510649       -7.3587456937       -8.1425997175
 H         1.7756466770       -6.0268541408       -9.3274789557
 H        -2.5229549189       -3.6652023716      -10.0135939610
 H        -3.2406035629       -5.0801657319       -9.2748089277
 H        -2.8757773161       -6.3779837778      -11.4876586450
 H        -1.4979330374       -5.5680812150      -11.8521270571
 H        -6.3705609249       -4.3592532700      -14.8620555130
 H        -6.0594671596       -4.0926021992      -13.0615754196
 H        -7.6582947975       -5.9119396213      -12.4649907601
 H        -7.3393471195       -6.8300876843      -13.9554715452
 H       -11.3625201480       -2.6271508852      -12.3816708092
 H        -9.8705803943       -2.4634045624      -13.2342550144
 H        -8.7807946636       -2.1585380549      -10.8342458025
 H       -10.2551504573       -2.5778566689      -10.1605975349
 H        -6.8774915166        0.9453040045      -10.6943259389
 H        -7.1046577264        2.5164842063      -10.0904726489
 H        -6.5883678959        2.7400978960      -12.4616440779
 H        -8.3336965982        3.2840271643      -12.2500768195
 H       -10.7144151299        1.7570217293      -16.4901029457
 H        -9.8385998543        3.2599727451      -16.6173464623
 H       -12.3830019144        3.1562489645      -14.7870532629
 H       -12.1980268544        3.6670303097      -16.3966642763
 H       -14.8590026677        5.0631938111      -13.3861411809
 H       -14.3930668605        6.6196459169      -12.7288891156
 H       -15.5835348548        5.6542080131      -10.9585084295
 H       -13.9474285842        5.5417826906      -10.4490698518
 H       -16.1999498024        2.0613248811       -6.9201192585
 H       -17.4975001698        2.1463060158       -8.1509795248
 H       -16.8251239203        4.2876812272       -6.0722001035
 H       -18.3070816812        3.2758094581       -6.1509880962
 H       -18.9210344887        9.0665661710       -7.3323940818
 H       -20.0652426317        8.6101561892       -8.4975277789
 H       -18.5787823979        9.2891673059       -8.9962942799
 H       -20.6836427570        7.2248911574       -6.9194056805
 H       -20.7282848960        5.7543029384       -6.0392753111
 H       -20.9641980027        5.7172040613       -7.8831479994
 H       -17.1074346017        6.5729314180       -5.9552324455
 H       -18.6349490003        6.2434866685       -4.9160422608
 H       -18.3259454231        7.7092651681       -5.6219561647
 H       -17.8329948339        2.3476974522      -10.3944333828
 H       -17.0270120752        3.1914825514      -11.7574104188
 H       -17.5941426945        4.1993240351      -10.2614712737
 H       -16.2837791139        0.7435596270       -9.6212140183
 H       -14.6238033905        1.0082887954       -9.9068818990
 H       -15.8311821388        1.1933402027      -11.2191167356
 H       -10.7921018236        7.6558935671      -14.7110144838
 H       -11.0932093045        7.2314418817      -13.0304734905
 H       -12.2337883264        8.1399927024      -13.7468291078
 H       -14.0810325127        5.5430679244      -15.5387113769
 H       -12.7458938002        6.4362080463      -16.4968437659
 H       -13.7278114865        7.2616974598      -15.4144980726
 H        -6.2879576657        2.7449772305      -15.3301472044
 H        -7.4034120905        3.7803010895      -14.5846748779
 H        -7.8480041500        3.1951304206      -16.2206989478
 H        -7.2618033994        0.4825573289      -16.0036864076
 H        -8.9353364870        0.4980874923      -16.3775706366
 H        -8.3645482796       -0.3314046974      -14.9006901633
 H       -11.0838974757        1.4272561468       -8.6458593407
 H        -9.9298276651        0.4912894591       -7.5546235012
 H       -11.2108236872       -0.3921661724       -8.2734780195
 H        -8.8821368149       -1.6171049242       -8.6970068231
 H        -7.8176733327       -0.2411848341       -8.2461265701
 H        -7.6525056865       -0.8932878167       -9.8805896584
 H       -11.7987864373       -6.0209039603      -14.2521787183
 H       -11.0220397698       -4.8086111971      -15.1849578912
 H       -11.9748385814       -4.2655748725      -13.9661503158
 H       -11.0561937557       -6.8268375033      -12.2995241624
 H        -9.4919835582       -6.6731734979      -11.7155354992
 H        -9.7488121838       -7.5009498987      -13.2305313105
 H        -4.6060167001       -3.1449506949      -14.4391079922
 H        -3.7600455387       -3.9362413415      -15.8145851977
 H        -2.8985728205       -2.8481405389      -14.6013708632
 H        -1.4956453037       -5.4777541833      -14.2160855243
 H        -2.4921808636       -5.8014962971      -15.5618915963
 H        -2.6798509517       -6.8462006081      -14.0907701200
 H        -0.4083210233       -7.7038545184       -9.8114060631
 H        -1.9272890355       -7.7666356675       -8.7524303893
 H        -0.3169638898       -8.0891376707       -8.0327517509
 H        -1.9194560390       -4.8498405489       -6.8258811679
 H        -1.9085870879       -6.3247232450       -6.1773545417
 H        -2.8909805374       -5.9840704861       -7.6362707064
 H         5.0504859133       -4.9825557181       -6.2386109979
 H         4.3670782484       -3.3740144319       -6.3549469329
 H         6.0834157023       -3.3341571437       -6.3479286974
 H         4.0651911142       -1.9635625253       -8.3260947338
 H         4.0734439122       -2.9944098426       -9.8727450388
 H         5.4399506963       -2.0541848343       -9.3838386517
 H        10.1942699760       -0.8365176417      -11.8514343689
 H        11.5223147930       -0.7176413433      -10.6520228217
 H         9.9338249475       -1.0953219240      -10.0586192824
 H        11.2344742911       -2.6999477461      -13.3127636939
 H        12.1247773983       -3.9607615506      -12.4898867727
 H        12.6263711381       -2.4061255693      -12.3641896916
 H        15.6333063365       -4.8060251982       -6.4459521218
 H        14.9905271704       -4.8306480700       -4.7675549634
 H        14.1706584784       -3.8909368953       -5.9713493556
 H        15.4263978810       -7.4775482174       -5.8533138220
 H        15.3298266354       -7.0497271270       -7.3743472507
 H        14.1586505338       -8.1872592905       -6.8042799743
 H         9.2971759104       -4.8267125819       -1.2290625168
 H        10.8791503711       -5.7314453856       -1.5897883119
 H         9.4134526659       -6.5866159403       -1.6304150883
 H         7.2845138892       -5.0791757805       -3.0564395855
 H         8.0461559230       -4.4818173666       -4.5614994553
 H         8.1259116305       -3.4425988668       -3.1157198522
 Na        9.8736683466       -4.3133769651       -7.0069667834
 Na      -11.9532102423        2.2722094080      -11.2635199643
