232

 C        11.2581643095       -3.1877160884       -2.7540408305
 C        10.4472268575       -3.8988633699       -3.7978654116
 O        10.5446776013       -3.6086147782       -4.9635046725
 C         9.4826621410       -5.1458900732       -3.3131435368
 C         9.6907049431       -6.0817560453       -4.5083100241
 O         9.2079694025       -5.8379435173       -5.6046017177
 C        10.4436046638       -7.3634066876       -4.4377017661
 C        11.6700083184       -7.4560062506       -5.3913580864
 C        12.5976067412       -6.2787169258       -5.2047921592
 O        12.6524649790       -5.7958557551       -4.0533777550
 C        13.5931277569       -5.8699059059       -6.3718153005
 C        12.7743612484       -5.3957691232       -7.6208957468
 O        11.6250838196       -5.7148987174       -7.8033722851
 C        13.5718454357       -4.5218224767       -8.5725482311
 C        12.9226310013       -4.3550281070       -9.8937242847
 C        11.7350844660       -3.3864278023       -9.8155173329
 O        11.3239310551       -3.0529079711       -8.7406682246
 C        10.8989174270       -2.8493323173      -11.1094222113
 C         9.5327059527       -3.5781149017      -11.1053878075
 O         9.5537935966       -4.7389623237      -11.4774239828
 C         8.2917459584       -2.8906615675      -10.4767158195
 C         7.2163804845       -3.9975705914      -10.0759537703
 C         6.7727120587       -3.9114739475       -8.5974226640
 O         7.6550719817       -3.8794304966       -7.7828545634
 C         5.2494493110       -3.9133690480       -8.1561892896
 C         4.3042798636       -5.1611284508       -8.6759914611
 O         4.2672918626       -5.5296565740       -9.8652645977
 C         3.3002792398       -5.6979882771       -7.7026695962
 C         2.0528203648       -6.3604039274       -8.3368729871
 C         0.8183134953       -5.8378314473       -7.5642960685
 O         0.8845749752       -5.0495123529       -6.6170358249
 C        -0.7229028993       -6.2345849951       -8.1968376284
 C        -1.0735949716       -5.1597701356       -9.2775588446
 O        -0.3749813869       -4.2212950669       -9.5980646427
 C        -2.3196276063       -5.3035441476      -10.2012743193
 C        -2.0228977305       -5.0341726142      -11.5991275705
 C        -3.1921679233       -4.4320577184      -12.3923908688
 O        -3.8172629602       -3.5240153914      -11.9451235300
 C        -3.5255561849       -4.8434155446      -13.9335412064
 C        -4.8571558756       -5.6201354101      -13.8723775218
 O        -4.8546020025       -6.8089839965      -13.8029165039
 C        -6.1491492574       -4.8194746285      -13.3547761676
 C        -7.4333752651       -5.6829090059      -13.5111417454
 C        -8.6734598657       -4.9127353861      -13.9053878456
 O        -8.6094796821       -4.0798284750      -14.8260861643
 C        -9.9924232547       -5.2020615228      -13.1495148961
 C        -9.8495988752       -4.1893085485      -11.9896066186
 O        -9.4905046209       -4.4976365739      -10.8792046871
 C       -10.3528655725       -2.6630264200      -12.1813010475
 C        -9.6414479694       -1.7137147077      -11.1801366858
 C       -10.2153499756       -0.3645836372      -10.9041876733
 O       -11.0960372192        0.1312309384      -11.5068252908
 C        -9.5627214308        0.5576428132       -9.7169187686
 C        -9.0003345469        1.8697777958      -10.3831092826
 O        -9.7034613025        2.8399819336      -10.4931783216
 C        -7.4706694007        1.8894227243      -10.7380967447
 C        -7.4454364128        2.2905698269      -12.1984773253
 C        -7.9875685434        1.1365503904      -13.1079105756
 O        -8.0504090716       -0.0216448541      -12.7791009548
 C        -8.4022578298        1.6369497706      -14.5503234663
 C        -9.9235406402        2.0649454786      -14.5213056175
 O       -10.4066769611        2.1424221402      -13.4153402894
 C       -10.7083264138        2.4485601811      -15.7999719198
 C       -11.7723779262        3.5198310096      -15.3457530942
 C       -11.3799620760        5.0062363428      -15.1094548731
 O       -10.2472023618        5.3015767332      -15.4432459429
 C       -12.3514480109        5.8874307086      -14.3154181462
 C       -12.7633470349        5.2953334770      -12.8899126412
 O       -12.0296395811        4.5905865509      -12.2773481731
 C       -14.1862233216        5.7042017977      -12.2912446250
 C       -14.4920333256        4.9182535062      -10.9294668681
 C       -14.7030939649        3.4306307116      -11.1502411569
 O       -14.0655654525        2.7381743087      -11.9436364172
 C       -15.7366931551        2.6634445897      -10.2584842050
 C       -15.8419846991        3.2147278532       -8.7837875964
 O       -14.9749497038        3.9501168815       -8.3251732436
 C       -16.9846627732        2.5935896121       -7.8978384076
 C       -17.4611439102        3.7203321913       -6.9389198507
 C       -18.5425276218        4.6657218188       -7.4592077326
 O       -19.3123260314        4.1687180895       -8.3227336061
 C       -18.6216000037        6.1562763091       -6.9770442558
 C       -18.3101565209        7.1094201706       -8.1531940849
 O       -17.6810179927        6.7392117131       -9.1167732853
 C       -18.8540723815        8.4693678005       -8.1149109042
 C       -20.0268350116        6.2816364227       -6.2864904145
 C       -17.4434624605        6.4352394696       -5.9459192823
 C       -17.1270161168        2.8522333155      -11.0023974587
 C       -15.2859225845        1.1785283275      -10.1474034044
 C       -11.6755844151        7.2498700933      -13.9509908512
 C       -13.6275717840        6.2778764438      -15.0618230354
 C        -7.5007057752        2.7516964359      -15.1479815461
 C        -8.3836732538        0.4221481398      -15.4827845487
 C       -10.7752548782        0.9272758297       -8.7342884893
 C        -8.3765673036       -0.2199606957       -8.9890672256
 C       -11.1822495887       -4.9768248594      -14.2034556075
 C       -10.1256263599       -6.5917980245      -12.5480930313
 C        -3.4743433520       -3.6400184062      -14.8069457412
 C        -2.3974306412       -5.7909227730      -14.4423386286
 C        -0.8081573618       -7.6260754329       -8.8380379607
 C        -1.6596287305       -6.2768936490       -6.9037523903
 C         5.2688336465       -3.6004395390       -6.6466061182
 C         4.5745250862       -2.7144145636       -9.0405027043
 C        10.8755740988       -1.2896185792      -10.9646561182
 C        11.5995500473       -3.2684548046      -12.4250422532
 C        14.7447697332       -4.9281887238       -5.8808969026
 C        14.1264002804       -7.1617047117       -6.9000922377
 C         9.8011447198       -5.5520104253       -1.8396862387
 C         7.9834345613       -4.6473918142       -3.4578340839
 H        11.9568096219       -3.9206950056       -2.2813488517
 H        10.6807475561       -2.7065416677       -1.8967641022
 H        11.8526277569       -2.3764035312       -3.2329032073
 H         9.8079714222       -8.1921405342       -4.5517614207
 H        10.7474790693       -7.4915562101       -3.3748846078
 H        11.2840270292       -7.4220497477       -6.4185877924
 H        12.1782508635       -8.4860914111       -5.4942836911
 H        14.5881626907       -4.9007678004       -8.5069018101
 H        13.6912534567       -3.5517297485       -8.2172908378
 H        12.5581608333       -5.3248780347      -10.3293777217
 H        13.6388413481       -3.8502254993      -10.5383975036
 H         7.7729086342       -2.1439143454      -11.0530142347
 H         8.8316116633       -2.2406523265       -9.7007294772
 H         7.8084575878       -4.9512915917      -10.3957254857
 H         6.3508597468       -3.8696042048      -10.7633517251
 H         2.8395910716       -4.9285895024       -7.0712543079
 H         3.8268972614       -6.4436772207       -7.0762892620
 H         2.0139201193       -7.4849009062       -8.2814661564
 H         2.0493074100       -6.1529256862       -9.3950578445
 H        -3.0603660568       -4.6850386910       -9.7015826663
 H        -2.8519373909       -6.3455776277      -10.0528027474
 H        -1.7534074658       -5.9712982240      -12.0096646789
 H        -1.0691260265       -4.3919982242      -11.7839410604
 H        -6.2161105282       -3.9141147729      -13.9101087199
 H        -6.0822867638       -4.6146657981      -12.3125173209
 H        -7.6133678547       -6.2280620564      -12.5385605561
 H        -7.3008899906       -6.3551768051      -14.4037586602
 H       -11.4869843174       -2.6170905371      -12.0429477113
 H       -10.1326619847       -2.3332060724      -13.1514288296
 H        -8.5759659094       -1.7148636538      -11.4942143642
 H        -9.5137839969       -2.1378422802      -10.1881069563
 H        -6.9797019139        0.9725046714      -10.5926569416
 H        -6.8573091126        2.6076645056      -10.1822140299
 H        -6.3777876317        2.3458114691      -12.4228820492
 H        -7.9535864892        3.2399040983      -12.3353994971
 H       -11.2519050859        1.7075840317      -16.2043790652
 H        -9.8852292838        2.6878853867      -16.5246588314
 H       -12.2398946758        2.9856776821      -14.4694858368
 H       -12.6201350087        3.5673278178      -16.0608289609
 H       -14.9203487695        5.5193810113      -13.0952778257
 H       -14.2311833598        6.8409900075      -12.2184284390
 H       -15.3427528367        5.3345543735      -10.3922436991
 H       -13.6255473099        5.0818215934      -10.2301347394
 H       -16.5449217953        1.7877085444       -7.2480487332
 H       -17.8581323649        2.1839948537       -8.4006308329
 H       -16.5703777324        4.3476743063       -6.8015602081
 H       -17.5969234507        3.3160879899       -5.9767505636
 H       -18.1156515099        9.2308918741       -8.0660667109
 H       -19.5629800237        8.6280705533       -7.2884470780
 H       -19.5465586021        8.7521663767       -8.9372892459
 H       -20.1366083849        7.0187724492       -5.5173185083
 H       -20.0913860411        5.3438857052       -5.7281853277
 H       -20.7876915201        6.3773126996       -7.0791160230
 H       -16.4913740684        6.4693496858       -6.3268893146
 H       -17.4329760039        5.7111491663       -5.0406113861
 H       -17.5651865208        7.4078366864       -5.5244108873
 H       -17.9328976281        2.4633143711      -10.4306843706
 H       -17.0731349370        2.4526139312      -11.9744400017
 H       -17.2082296910        3.8906712765      -11.0066735735
 H       -16.0364608918        0.5612840630       -9.7380656400
 H       -14.4951058325        1.1207529155       -9.3568747325
 H       -14.9362849472        0.6787468084      -11.0217827982
 H       -11.0541352282        7.6145295665      -14.7589196140
 H       -11.1823257191        7.2248562544      -12.9735681054
 H       -12.4009958364        8.0739101030      -13.8007016234
 H       -14.0719559212        5.3515031344      -15.3321779062
 H       -13.3764024938        6.9801391826      -15.8948641932
 H       -14.3367757274        6.8317566105      -14.4539604082
 H        -6.4543011701        2.6028706167      -14.8867277952
 H        -7.6735601625        3.6540065634      -14.7800221892
 H        -7.4839188746        2.7276386630      -16.1807440109
 H        -7.5022911170       -0.1181732630      -15.3097161575
 H        -8.3488528003        0.7478938026      -16.5253129160
 H        -9.2951444643       -0.2502512508      -15.4399878587
 H       -11.7428669543        0.8498295096       -9.2559809831
 H       -10.4381366373        1.8349130205       -8.2587890788
 H       -10.6748640103        0.2421415068       -7.9575377232
 H        -8.9050719529       -0.9711393467       -8.3752639233
 H        -7.9316160484        0.4000198277       -8.2847685513
 H        -7.6241875201       -0.5903173110       -9.6621434788
 H       -10.9623350285       -5.4245877743      -15.2451627005
 H       -11.6098675142       -4.0017088497      -14.2094259269
 H       -12.0624373502       -5.5896982447      -13.8804351629
 H       -11.1104716895       -6.8065112433      -12.1878398907
 H        -9.4743693332       -6.8158762071      -11.6828227542
 H        -9.9758025983       -7.3334369508      -13.3527650369
 H        -2.5421678099       -3.0967770460      -14.5809060665
 H        -4.3189280347       -2.9937475308      -14.8838329926
 H        -3.2615366841       -3.9761855389      -15.8288548205
 H        -1.4298019942       -5.2626339387      -14.5365824782
 H        -2.6771671351       -6.2166051715      -15.4019417699
 H        -2.3475884658       -6.6996488689      -13.7359971251
 H        -0.0033233306       -7.8371910549       -9.5744546128
 H        -1.7736494700       -7.7427783275       -9.2883127723
 H        -0.6630664703       -8.3251551703       -8.0160067278
 H        -1.7041863387       -5.3868855019       -6.2442367658
 H        -1.5159184662       -7.1930813931       -6.2916808502
 H        -2.7374040026       -6.3905105883       -7.2971368963
 H         5.8576741336       -4.3171251542       -6.0867908912
 H         4.3241534952       -3.6592226104       -6.2841998350
 H         5.6478112914       -2.5541725270       -6.4941308156
 H         3.4674754307       -2.7195459542       -8.9941964886
 H         4.7992896400       -2.6654569813      -10.0530812274
 H         4.8335130126       -1.7811767477       -8.6012178421
 H         9.8793287911       -0.8407009001      -10.8759405922
 H        11.4611720272       -0.8547673616      -11.7852826652
 H        11.3246402901       -1.0402346188      -10.0332850752
 H        11.2059749140       -2.6549427189      -13.2810275389
 H        11.4733678422       -4.2895430728      -12.7544176152
 H        12.6592314259       -2.9859986355      -12.5595912662
 H        15.6543433352       -5.2260440861       -6.3011468564
 H        14.7565879101       -5.0559104921       -4.7833856704
 H        14.6700599178       -3.8380780671       -6.0895876890
 H        14.6068914765       -7.7397356822       -6.1028557927
 H        15.0071806899       -7.0983273668       -7.5929595139
 H        13.3715726609       -7.7485567100       -7.4976137230
 H         9.6909474803       -4.6781611664       -1.1549095136
 H        10.8553766832       -5.8270623512       -1.8688552537
 H         9.2174809309       -6.3862377276       -1.5320572790
 H         7.3934429714       -5.4769271798       -3.1270189153
 H         7.7733500286       -4.2844396098       -4.4601950361
 H         7.7910013962       -3.7814977679       -2.7956568487
 Na        9.8439284616       -4.2973323936       -7.1322404878
 Na      -11.8409866297        2.2909914368      -11.9291295066
