232

 C        11.3578036274       -3.1730252054       -2.8400879494
 C        10.4081393339       -3.8588646444       -3.8191587745
 O        10.4569072942       -3.5154660515       -4.9502103070
 C         9.4989435919       -5.0596847335       -3.3851708647
 C         9.5506257247       -6.0996703000       -4.6044748826
 O         9.1331132625       -5.7817135562       -5.6894135013
 C        10.3030440742       -7.5503601106       -4.5712924047
 C        11.5362707959       -7.3865828128       -5.4419893738
 C        12.5924377454       -6.2328940442       -5.1269797939
 O        12.7534878919       -5.7489988490       -4.0250662086
 C        13.5188524587       -5.9428168146       -6.2990910192
 C        12.7148541557       -5.2786395291       -7.5536439383
 O        11.6334692910       -5.7246173608       -7.7565927866
 C        13.5205086641       -4.4619200621       -8.6035179575
 C        12.8442077467       -4.2611685707       -9.9690288441
 C        11.5717113538       -3.4092186074       -9.8605727408
 O        11.1879588046       -3.0462297846       -8.7103692865
 C        10.9662124586       -2.8205266076      -11.1264015682
 C         9.5075170841       -3.6352297597      -11.0035217960
 O         9.4372198646       -4.7657389433      -11.4796222068
 C         8.3150183765       -3.0378600909      -10.3411868625
 C         7.1193129465       -3.9993395518      -10.0649008123
 C         6.7262444879       -3.9016573364       -8.5577666602
 O         7.6241782285       -3.9167169897       -7.6855318042
 C         5.2183060912       -3.7659665622       -8.1704002931
 C         4.3960926232       -5.0603231297       -8.6637593085
 O         4.4576949558       -5.4207160150       -9.8285325278
 C         3.3711077997       -5.6189624944       -7.5934768842
 C         2.0993583329       -6.2236727052       -8.3663340548
 C         0.8115696110       -5.9101944333       -7.5852247743
 O         0.9458282539       -5.2260621583       -6.5825968599
 C        -0.5676134365       -6.3058458356       -8.1675390835
 C        -1.0669525477       -5.2018103282       -9.2987487417
 O        -0.3768824990       -4.2293703758       -9.4546175954
 C        -2.3210049739       -5.4406541626      -10.1903144271
 C        -1.9537950111       -4.9173470426      -11.6415128230
 C        -3.1758816215       -4.3624993791      -12.4529061691
 O        -4.0089834333       -3.6995153898      -11.8575714067
 C        -3.3897403379       -4.8300551668      -13.9255602461
 C        -4.8973688840       -5.6676864629      -13.6735234226
 O        -4.9114294297       -6.8399820603      -13.9162840242
 C        -6.0786638658       -4.8358271922      -13.3707145380
 C        -7.4066265868       -5.6969956678      -13.4402126949
 C        -8.6235286689       -4.8349764387      -13.9136973840
 O        -8.5573477851       -3.9362880998      -14.7271183570
 C        -9.9933557144       -5.0969553195      -13.1014601860
 C        -9.9554187775       -4.1312704088      -11.9139829019
 O        -9.3831014976       -4.5498543316      -10.9205474106
 C       -10.3578443239       -2.6429724319      -12.0363028611
 C        -9.5417757868       -1.7263208880      -11.0104269104
 C       -10.1374591305       -0.3441472576      -10.9177809414
 O       -11.1493263167        0.0341874228      -11.5239501845
 C        -9.5893146355        0.5982828130       -9.7533946648
 C        -9.0271984225        1.9857046277      -10.3191750089
 O        -9.6434200685        3.0001907334      -10.6648717441
 C        -7.5477980604        1.8704891989      -10.7477543171
 C        -7.3163446149        2.3093940679      -12.2625390707
 C        -7.9745857470        1.2721458374      -13.2096367256
 O        -7.9819895649        0.0946833737      -12.8911780599
 C        -8.3935441875        1.5837041273      -14.6897571506
 C        -9.8690046339        2.0960838931      -14.5365844218
 O       -10.3244507949        2.0838007479      -13.4490184040
 C       -10.7706981198        2.4585638614      -15.7099453679
 C       -11.8740493328        3.3488161513      -15.3109368952
 C       -11.4029453493        4.8715142399      -15.0451121118
 O       -10.4305820261        5.4242935477      -15.4666537400
 C       -12.4919147375        5.8283693720      -14.1976972289
 C       -12.7838967685        5.2765824253      -12.8462096002
 O       -11.8966919062        4.6442994196      -12.3186306550
 C       -14.0707637801        5.6225787624      -12.1772105220
 C       -14.4962704364        4.8074543985      -11.0068621327
 C       -14.6751124628        3.3253997299      -11.1986358759
 O       -14.1070622639        2.6989057393      -12.0384860506
 C       -15.7463286426        2.6125381233      -10.3009170937
 C       -15.8277214624        3.1442808536       -8.8565132109
 O       -15.0589848744        3.9630597373       -8.3990017283
 C       -16.9358589109        2.6794896734       -7.9926470658
 C       -17.3228251356        3.7336207657       -6.9558805137
 C       -18.4663286438        4.5608417749       -7.4753515754
 O       -19.3888377290        4.2556090276       -8.2195095141
 C       -18.4976855162        6.0300097595       -6.8296976589
 C       -18.3747616509        6.9901178309       -8.1132062275
 O       -17.6358665960        6.6230744063       -9.0526404859
 C       -18.8704530245        8.4986066195       -8.0702732456
 C       -19.8002175383        6.3475514817       -6.0845078702
 C       -17.3916255712        6.4321653627       -5.8825970463
 C       -17.0473129220        2.6764964035      -11.1587304027
 C       -15.3801510488        1.0959337710      -10.2017866940
 C       -11.6999843765        7.2252615502      -13.8103460923
 C       -13.7657539513        6.2408067948      -15.0536572784
 C        -7.5385540821        2.6818603365      -15.1600773643
 C        -8.4500250388        0.2402899536      -15.5287974218
 C       -10.8933051378        0.7357619289       -8.9064265797
 C        -8.4674247335       -0.0518040462       -8.9105479588
 C       -11.1417775657       -4.8246255856      -14.1210441774
 C       -10.1498730183       -6.4964097911      -12.4808671399
 C        -3.4407108452       -3.5259293909      -14.8376920787
 C        -2.4229667667       -5.8529800025      -14.4703094699
 C        -0.5163309877       -7.6539907709       -8.8901952241
 C        -1.5884228710       -6.2571259984       -6.9748498642
 C         5.0672115272       -3.6195691478       -6.6736674383
 C         4.5416353589       -2.7107691571       -9.0028167403
 C        11.0315577786       -1.2642572183      -10.9738827857
 C        11.6488424910       -3.3460371307      -12.3646773745
 C        14.6811264092       -5.0545188911       -5.8603834955
 C        14.0700491050       -7.2433710355       -7.0505975195
 C         9.8554916025       -5.6363962925       -2.0912581149
 C         7.9709643262       -4.5771095800       -3.4641975698
 H        11.9085087571       -3.9645220838       -2.1996076102
 H        10.8005341843       -2.5273089753       -2.0529273561
 H        12.1078543565       -2.4791200822       -3.3439868323
 H         9.6506972789       -8.3684787779       -4.9663017518
 H        10.5754626664       -7.9692436759       -3.6033667887
 H        11.1984478060       -7.3715863660       -6.4941518783
 H        12.0998767828       -8.4007125029       -5.5318603144
 H        14.4452580184       -4.9694958483       -8.5418836686
 H        13.7755376662       -3.4393993339       -8.2843019784
 H        12.4602038952       -5.2169158587      -10.3092292271
 H        13.5680065456       -3.7465401526      -10.7038395130
 H         7.9345468975       -2.1183433348      -10.8600118895
 H         8.7976771280       -2.5381413099       -9.4816812462
 H         7.5456489146       -4.9915971170      -10.3650065326
 H         6.2498688790       -3.7822417349      -10.7514273551
 H         2.9245354577       -4.8362624651       -6.9833155605
 H         3.7334345172       -6.4200396836       -6.9591828160
 H         2.2651172423       -7.3242251582       -8.4363160673
 H         2.1020333714       -5.9534928572       -9.4065327371
 H        -3.1685400197       -4.7076748801       -9.7838887616
 H        -2.7698980069       -6.3431277386       -9.9827315928
 H        -1.3172531108       -5.5815570947      -12.2517459793
 H        -1.3025659066       -4.0142781529      -11.5176201676
 H        -6.0403340177       -4.0052128493      -14.0850988951
 H        -5.9384851271       -4.4622675307      -12.3239557410
 H        -7.6555631981       -6.0962150176      -12.3838357276
 H        -7.1840283763       -6.4957172840      -14.2385650824
 H       -11.3924149430       -2.4203143526      -11.7836641347
 H       -10.1669029487       -2.3961973566      -13.0838010234
 H        -8.5135658492       -1.6487600981      -11.2630742191
 H        -9.4580726723       -2.1605434121      -10.0244568716
 H        -7.0710463069        0.9172728322      -10.5128668652
 H        -7.0460449718        2.5227939820      -10.1459392015
 H        -6.2789095401        2.2469271506      -12.4363614779
 H        -7.7288476285        3.3466328635      -12.4288547354
 H       -11.1501550655        1.5246670383      -16.1771671674
 H       -10.1361073704        2.9018538574      -16.4756277973
 H       -12.3769537168        2.8978713521      -14.4368912288
 H       -12.6797531933        3.4742062938      -16.0682369981
 H       -14.8905047177        5.8428952929      -12.9809124748
 H       -13.8826900355        6.6489735828      -11.8351477326
 H       -15.3651752846        5.3409170242      -10.4966643564
 H       -13.6741101418        4.9200267499      -10.2639977144
 H       -16.7824277494        1.7001615645       -7.4948333856
 H       -17.8723699347        2.5852879477       -8.5617216736
 H       -16.4674805184        4.4151228557       -6.7138420560
 H       -17.4991916794        3.3166379386       -5.9673639729
 H       -18.1273681746        9.1418395427       -8.4184822676
 H       -19.2621231327        8.8484009785       -7.1260657376
 H       -19.7450486016        8.7150767317       -8.6287539915
 H       -19.6413675033        7.2776206933       -5.5902875585
 H       -19.9722106804        5.6566696210       -5.2978104530
 H       -20.6226200990        6.4823408981       -6.8556174473
 H       -16.3928160875        6.2536782346       -6.4074047022
 H       -17.3216821353        5.8398139604       -4.9921349885
 H       -17.3703995872        7.4803008253       -5.6323626265
 H       -17.8697745746        2.3646528593      -10.5684131134
 H       -16.8808461713        2.0911227176      -12.0553179296
 H       -17.1794258475        3.7093797185      -11.3746910237
 H       -16.0531364136        0.4738826364       -9.6379331593
 H       -14.4519783144        1.0744499407       -9.6226899848
 H       -15.1805877541        0.5917054624      -11.1242441953
 H       -11.4545851287        7.8049517461      -14.7085904389
 H       -10.8647623905        7.0274462602      -13.1247820625
 H       -12.3221368780        7.9418300450      -13.2490047530
 H       -14.3935633311        5.3528881269      -15.2166802908
 H       -13.3001796418        6.6384761029      -15.9997543980
 H       -14.3499599320        7.0825177648      -14.6221963369
 H        -6.4853573815        2.5645245307      -14.9303047861
 H        -7.8108194464        3.6682460093      -14.5593504191
 H        -7.5251833635        2.8162755999      -16.2112246007
 H        -7.5670933389       -0.3190473004      -15.2746071810
 H        -8.5478933634        0.2952081403      -16.5688124048
 H        -9.3190249614       -0.3073135524      -15.1827578856
 H       -11.7623999544        0.3877948362       -9.4404773780
 H       -10.8136576738        1.6897445771       -8.6034275154
 H       -10.7320087706        0.1469271742       -7.9681904464
 H        -9.0134888589       -0.6870490829       -8.2517457831
 H        -8.0519052447        0.6586977900       -8.2525938753
 H        -7.6662763614       -0.5296640126       -9.4779842010
 H       -10.7910643024       -4.8966780193      -15.1362831763
 H       -11.7465916340       -3.9272748229      -13.9073812046
 H       -11.8828977946       -5.6320026760      -14.0868088456
 H       -11.0983219113       -6.5576005849      -12.0092378237
 H        -9.4947971676       -6.6687438570      -11.7006683769
 H       -10.1697062933       -7.3519400652      -13.1739106828
 H        -2.4277189868       -3.2723859603      -15.0565538666
 H        -3.8869505921       -2.7134873975      -14.2480947907
 H        -3.9546659994       -3.5114133908      -15.8086348154
 H        -1.4129522822       -5.4993410997      -14.5810866769
 H        -2.8775922207       -6.0734929043      -15.4848932133
 H        -2.4890843256       -6.8575907422      -13.9365078149
 H         0.1759376672       -7.7916955342       -9.7949110097
 H        -1.5950494375       -7.8539778207       -9.1337368723
 H        -0.2780449938       -8.3855997329       -8.1576706317
 H        -1.6067567578       -5.2294790890       -6.6507861791
 H        -1.5193738277       -6.9379312028       -6.1099922626
 H        -2.6131481862       -6.3871093038       -7.3611689913
 H         5.4178005594       -4.5108671342       -6.1519895192
 H         3.9751311701       -3.5406305768       -6.4698330680
 H         5.5770550980       -2.7678202581       -6.2611716855
 H         3.4981233722       -2.8439413451       -9.1170305884
 H         4.8609443306       -2.6151109233      -10.1014650129
 H         4.6678187268       -1.7475937989       -8.5693085949
 H        10.0128239003       -0.9116502349      -11.0475455748
 H        11.6018624494       -0.8768405927      -11.7276516822
 H        11.3009656109       -0.8964202330       -9.9923051497
 H        11.3154318093       -2.8267663208      -13.2384354255
 H        11.3601849050       -4.3649912387      -12.5903970181
 H        12.7028948382       -3.1912178446      -12.5255647521
 H        15.4299505952       -5.0528651372       -6.6626634320
 H        15.0571329168       -5.3620825317       -4.9178252482
 H        14.4188667617       -3.9957952374       -5.8012695071
 H        14.6202749741       -7.9264812742       -6.3663020054
 H        14.8354615694       -7.0517254267       -7.7860172355
 H        13.3024236814       -7.7648501261       -7.6576647870
 H         9.7703463152       -4.8143520721       -1.3480550319
 H        10.8523009645       -6.0355600546       -2.0658468810
 H         9.0633733493       -6.3793984399       -1.8918472533
 H         7.4155504702       -5.5517498128       -3.4830863271
 H         7.8637142755       -3.9213955724       -4.3228262248
 H         7.6178665496       -4.0163301236       -2.6232907447
 Na        9.9085112923       -4.2400403199       -7.2022801819
 Na      -11.7926157060        2.4625334509      -11.9187980749
