232

 C        11.3371821613       -3.3424203125       -2.8990105735
 C        10.3937625880       -3.8348500780       -4.0443115270
 O        10.3277164764       -3.2303154385       -5.1254232820
 C         9.5043387473       -4.9637832690       -3.6925355636
 C         9.4312102795       -6.1083787965       -4.8975776203
 O         8.8510186981       -5.8739304124       -5.9222078331
 C        10.2091840165       -7.4055286669       -4.6388706483
 C        11.5094267990       -7.5857530955       -5.5257925101
 C        12.4327917233       -6.4341172007       -5.2971598362
 O        12.5572365386       -5.8345986374       -4.2071790768
 C        13.4819892975       -6.1593138099       -6.3874272246
 C        12.7678476094       -5.4192775766       -7.5312495424
 O        11.5693538000       -5.5801981689       -7.7846854062
 C        13.5165582903       -4.3630941910       -8.4495014110
 C        12.7605767899       -4.2797050142       -9.7603414579
 C        11.5750033062       -3.3142642636       -9.7306200726
 O        11.0146740866       -2.8910928271       -8.7741244014
 C        10.9269369328       -2.9547642975      -11.1533602543
 C         9.4622455268       -3.6235570751      -11.0763297976
 O         9.2844863761       -4.7258847096      -11.5287061676
 C         8.4353506310       -2.9993835120      -10.1147150242
 C         7.1904403087       -3.8744646261       -9.8317665613
 C         6.6744100410       -3.7335664526       -8.4076870566
 O         7.3718512648       -4.0042506048       -7.4817833783
 C         5.1619332462       -3.5067757713       -8.1250158024
 C         4.4238143168       -5.0072646340       -8.6985378487
 O         4.8456449910       -5.4778508831       -9.7462472621
 C         3.3898553261       -5.6581187495       -7.8189691322
 C         2.1273274060       -6.0537013567       -8.5024787556
 C         0.9731053360       -5.9626879605       -7.6434427701
 O         0.9348638811       -5.5900996290       -6.4730816571
 C        -0.4021147409       -6.3338037242       -8.2619244619
 C        -0.6972522157       -5.2362406197       -9.2981421378
 O        -0.2815964713       -4.0882804649       -9.2221975661
 C        -1.8971563759       -5.4901199337      -10.2870993471
 C        -1.8413528777       -4.7321155283      -11.5920081496
 C        -3.1992018319       -4.5355118468      -12.2683383321
 O        -4.0240682788       -3.9515439644      -11.6077893445
 C        -3.4858252569       -4.9166775205      -13.8056119242
 C        -4.8738689660       -5.6888641140      -13.8834900305
 O        -5.0064443434       -6.8636499285      -14.1255015168
 C        -6.1522844088       -4.7843791076      -13.6491245711
 C        -7.3931986042       -5.5782425944      -13.3220732704
 C        -8.5472957390       -4.7456344077      -13.6874094997
 O        -8.4596806245       -3.7624655128      -14.4268255948
 C        -9.9830426114       -4.9574263217      -12.9552724831
 C        -9.8093658171       -4.0417908129      -11.7282617119
 O        -9.2075996665       -4.3953568430      -10.7572536051
 C       -10.2360143874       -2.6430477086      -11.8839267251
 C        -9.5979837948       -1.7548469062      -10.8403466198
 C       -10.2149419761       -0.3610828040      -10.8502263277
 O       -10.9261583479        0.0604721969      -11.7150601391
 C        -9.7412578752        0.6224127235       -9.7643123837
 C        -9.1336441591        1.8822753606      -10.5605052158
 O        -9.8327200190        2.8052812637      -10.7473129670
 C        -7.6335074941        2.0532319031      -10.9809463948
 C        -7.4515142999        2.3772622616      -12.4341159095
 C        -7.7802313001        1.2107760836      -13.3919454202
 O        -7.8333988142        0.1213351790      -12.9001405803
 C        -8.3501653107        1.5598486527      -14.7881595590
 C        -9.8640075105        2.1481972953      -14.4985026921
 O       -10.2068664259        2.0254215540      -13.3484003810
 C       -10.7397748553        2.6400733752      -15.6650354558
 C       -12.0583622618        3.3355857413      -15.2650476244
 C       -11.5905319509        4.8993602392      -15.0727381159
 O       -10.5979039269        5.3436122815      -15.6166888197
 C       -12.4868582294        5.8793469656      -14.2003288200
 C       -12.7122609186        5.3294852774      -12.7839521572
 O       -11.8086981541        4.7465311204      -12.2043194765
 C       -14.1315243911        5.5738278828      -12.0794600360
 C       -14.3658849228        4.5775351809      -10.9604352370
 C       -14.7330132676        3.1137035678      -11.2848185408
 O       -13.9976714305        2.6692149358      -12.2094575468
 C       -15.7656926112        2.3029543813      -10.5224300974
 C       -15.9591625236        2.9660402761       -9.0006287395
 O       -15.1002688912        3.7339189813       -8.6107666719
 C       -17.1276053867        2.6285262622       -8.1120306589
 C       -17.2757485288        3.4951607445       -6.8136666099
 C       -18.3959654924        4.6193403298       -7.1065536797
 O       -19.4070120151        4.3701348087       -7.8539023522
 C       -18.2379622342        6.0626803949       -6.6123782080
 C       -18.2601188360        7.0132571921       -8.0149617770
 O       -17.6368121632        6.5091190551       -8.9050661448
 C       -18.8922759927        8.3844811063       -8.0735152024
 C       -19.6396602227        6.4158928922       -5.8455510132
 C       -16.9827269152        6.4330873735       -5.7587586834
 C       -17.0928451771        2.4792255751      -11.3621825433
 C       -15.3935958404        0.8441541065      -10.2894312999
 C       -11.7646131366        7.1608591360      -13.9711759748
 C       -13.8302095543        6.0746947904      -15.0655865586
 C        -7.5350967677        2.5359857314      -15.7192329964
 C        -8.3334857402        0.3098856058      -15.6322600830
 C       -10.9853181758        1.2751820302       -9.0376826771
 C        -8.7258735050        0.1163026490       -8.6911977088
 C       -11.0820755345       -4.4222089577      -13.8692688270
 C       -10.2371530644       -6.4508771599      -12.6897040449
 C        -3.6076030746       -3.5622603644      -14.5310905846
 C        -2.4393432013       -5.7897746676      -14.4065502918
 C        -0.1819412439       -7.8739286439       -8.8774248100
 C        -1.5774604435       -6.4028620375       -7.3290302672
 C         5.0072073955       -3.2623623904       -6.5365612934
 C         4.5460171878       -2.2819433093       -8.8397958764
 C        10.6080485146       -1.3662607978      -11.2278917910
 C        11.6151072245       -3.4586301727      -12.3666106651
 C        14.6803885995       -5.2870598093       -5.8648110415
 C        14.1200105567       -7.4561885886       -6.9569867759
 C         9.9063782374       -5.7507102679       -2.3810035115
 C         8.1658421000       -4.3283985675       -3.4436141919
 H        11.7675650170       -4.1545612506       -2.4476763036
 H        10.8102260489       -2.8414423243       -2.1567862201
 H        12.0771550859       -2.7115322042       -3.2230028500
 H         9.4669508698       -8.1947999762       -4.6772571612
 H        10.5768085859       -7.4471893596       -3.5663830824
 H        11.3556896389       -7.8038364178       -6.5712764795
 H        12.0205581900       -8.4444728347       -5.2085335210
 H        14.6011697560       -4.7074716958       -8.6768006424
 H        13.6177488377       -3.3653418823       -7.9707368222
 H        12.5494057190       -5.3269761262      -10.0756784117
 H        13.4140581172       -3.7699274257      -10.3830956717
 H         8.1076472600       -2.0400924039      -10.4144027494
 H         8.9610192990       -2.6748482066       -9.2157094316
 H         7.4470995093       -4.9163477008       -9.8298289290
 H         6.4518121028       -3.7702744775      -10.5508470479
 H         3.1555815769       -5.0958070755       -6.9170994595
 H         3.7189824881       -6.6610851907       -7.5132278813
 H         2.3584537636       -6.9801116434       -9.0118303005
 H         1.8902364910       -5.4673334504       -9.4286114269
 H        -2.7678493728       -5.2323620630       -9.8822899494
 H        -2.1131152896       -6.6324354941      -10.3974262427
 H        -1.1064423155       -5.0867839655      -12.2849619338
 H        -1.5813036675       -3.6999515483      -11.4728225332
 H        -6.3607841564       -4.3109750407      -14.6564563209
 H        -5.9281779988       -4.0633117899      -12.8585870892
 H        -7.5553303593       -5.6928928630      -12.3052013730
 H        -7.2498586643       -6.4374328406      -13.8766255670
 H       -11.3112195437       -2.4785587664      -11.6918514739
 H        -9.9182241337       -2.3620188904      -12.9010659043
 H        -8.5741482546       -1.5340243757      -11.2706092803
 H        -9.2987627546       -2.2654590988       -9.9134468806
 H        -7.0160471932        1.1674040673      -10.7989698695
 H        -7.1707935874        2.8514867242      -10.2210667890
 H        -6.3037190102        2.4531971071      -12.5512749896
 H        -7.9280931576        3.2637275610      -12.7740430957
 H       -10.6846820760        1.8312941041      -16.3885287952
 H       -10.2178111416        3.4639523864      -16.2485362602
 H       -12.5096903437        3.0975394126      -14.2972218746
 H       -12.8071887452        3.3210294133      -16.0318183519
 H       -14.9118663047        5.5294534085      -12.7219004684
 H       -14.1341928804        6.6136628247      -11.7705816490
 H       -15.0569968814        5.0770757816      -10.3634961644
 H       -13.4624748496        4.5041544462      -10.3495256508
 H       -17.0654669140        1.5860229269       -7.8380810274
 H       -18.0781555771        2.7171606196       -8.6282156019
 H       -16.3331293871        3.7666718036       -6.3415542910
 H       -17.6646260213        2.8919449831       -5.9483244706
 H       -18.8178547498        8.7985660273       -9.0905591932
 H       -18.3973799285        9.0396831440       -7.3487661259
 H       -19.9022623864        8.5331477573       -7.6256051288
 H       -19.7064552222        7.5169732117       -5.9450533638
 H       -19.5914950184        6.1824812985       -4.7554753346
 H       -20.4378137353        5.9692668742       -6.3672168555
 H       -16.0369995968        6.3410227908       -6.1717812621
 H       -16.8013967170        5.7888704058       -4.8107107829
 H       -17.1955879060        7.5003909350       -5.5175087125
 H       -17.9255085907        1.9256259878      -10.8250288153
 H       -16.8631744262        2.1643020338      -12.4045589192
 H       -17.3486283213        3.5741770065      -11.2922726361
 H       -16.1530974001        0.3995427466       -9.6270724991
 H       -14.3879611529        0.6750302701       -9.8578045510
 H       -15.3870498424        0.1920605211      -11.1835694304
 H       -12.0695970772        7.9262957316      -14.6575930711
 H       -10.7203019781        6.8880409280      -14.0835052266
 H       -11.8704337425        7.6790966509      -13.0227810904
 H       -14.6091284315        5.3196037064      -14.8923207828
 H       -13.5672309204        6.0501201096      -16.1384819090
 H       -14.1639400233        7.0538754411      -14.7354206615
 H        -6.5515307579        2.0751999331      -16.1703246109
 H        -7.2607065781        3.4152046830      -15.2474387403
 H        -8.0678414768        2.8032073872      -16.6744862717
 H        -7.3417848493        0.1196964698      -15.9828786560
 H        -8.9909623506        0.4666448828      -16.5164929949
 H        -8.7958558986       -0.5801508545      -15.1539710070
 H       -11.7464975447        1.1686356776       -9.8246741417
 H       -10.6905637884        2.3112184922       -8.6184400682
 H       -11.2346525712        0.5872867943       -8.2834789238
 H        -9.1069343228       -0.7161678295       -8.0434333688
 H        -8.4963407006        0.9752386230       -8.0279756813
 H        -7.8144956915       -0.1496649925       -9.2293820073
 H       -10.6901819714       -3.5586714390      -14.4551222255
 H       -11.8615432725       -4.0944297738      -13.2662435139
 H       -11.4134295908       -5.1102659435      -14.6235818689
 H       -11.2174560711       -6.6704406255      -12.2752098458
 H        -9.5330047199       -6.9268354244      -11.9617071379
 H       -10.2035767923       -7.0376741866      -13.5852406575
 H        -3.1018330835       -3.7490247463      -15.5357139747
 H        -3.2299645542       -2.6000131203      -14.1729637344
 H        -4.6286867018       -3.3096059114      -14.8260048843
 H        -1.4630699500       -5.3507471466      -14.2025271427
 H        -2.5667013769       -6.0251882645      -15.3925554506
 H        -2.4868505690       -6.6819420862      -13.8202600293
 H         0.2806223097       -7.7386943669       -9.8301381776
 H        -1.0795325436       -8.4880855753       -8.9646633527
 H         0.4982801251       -8.4971556648       -8.1955437246
 H        -1.8481067173       -5.4372214822       -6.9585712549
 H        -1.2414640706       -7.0047317970       -6.5432134968
 H        -2.4811881305       -6.8821652655       -7.6218735313
 H         4.8888362478       -4.1549383904       -5.8662402151
 H         4.2197166695       -2.5929003083       -6.3322087705
 H         6.0222672997       -2.8896530352       -6.0989127939
 H         3.4629561493       -2.0805436704       -8.5360590862
 H         4.3550123099       -2.3994018374       -9.8512796018
 H         5.1246943420       -1.3268051344       -8.7089876023
 H        10.0336983851       -1.1099001307      -12.1289862818
 H        11.6409359639       -0.9014253555      -11.3830105087
 H        10.0549001973       -0.9094787729      -10.4312699964
 H        11.0869808848       -3.4048455058      -13.3184331592
 H        11.8074087113       -4.4954186432      -12.4199463938
 H        12.4924357960       -2.8973481309      -12.6013906421
 H        14.8546301872       -4.4254005442       -6.4372627381
 H        15.5812101471       -5.8737739617       -5.5767919077
 H        14.3232784680       -4.7972646720       -4.9511598507
 H        14.7642182235       -7.9780480893       -6.3246036617
 H        14.6129587023       -7.2117618367       -7.8873163755
 H        13.4235649400       -8.1314134948       -7.3702783043
 H         9.7295520895       -5.1922140438       -1.4672848574
 H        10.9838472161       -6.0031717459       -2.4190333961
 H         9.2186524322       -6.5685313781       -2.3464779361
 H         7.5014726674       -5.1137393040       -3.2515986658
 H         7.8851835109       -3.5110783368       -4.0961522190
 H         8.2524788706       -3.8347028186       -2.4346830735
 Na        9.6935867573       -4.0522355644       -7.1660258523
 Na      -11.7315795401        2.4768508758      -11.5251240172
