232

 C        11.4377859605       -3.2400785504       -3.1165368408
 C        10.5236065488       -3.7568988916       -4.1378815003
 O        10.4388952323       -3.2236035727       -5.2398050886
 C         9.5411581530       -4.9740899365       -3.7856023705
 C         9.4345958258       -6.1697124501       -4.8825432261
 O         8.8356666633       -5.8875421650       -5.9326325318
 C        10.0804026967       -7.6316776066       -4.8436441551
 C        11.2533578244       -7.7323393607       -5.7626915165
 C        12.3757364863       -6.6516032740       -5.4054799346
 O        12.2036559252       -5.9286388327       -4.4853247716
 C        13.5467150332       -6.3469020671       -6.3868427708
 C        12.7119296395       -5.4327612750       -7.5284164598
 O        11.4924715865       -5.5683551589       -7.5535304522
 C        13.3630001636       -4.3911750670       -8.3745321983
 C        12.8098558447       -4.0943426473       -9.8262105844
 C        11.5318323218       -3.2055218171       -9.7756696558
 O        11.1569346760       -2.5877722969       -8.7380625852
 C        10.7761640767       -2.9276960611      -11.1321657068
 C         9.2866583380       -3.6576701892      -11.0302353421
 O         9.0684960989       -4.6744152812      -11.5930483563
 C         8.3486231957       -2.9350745951      -10.1033020696
 C         7.1433171570       -3.7893948610       -9.7066995633
 C         6.5872980255       -3.6396871673       -8.2461262986
 O         7.3659738448       -3.6937555457       -7.2776485340
 C         5.1358540461       -3.4235890864       -8.0051939942
 C         4.5720700714       -4.7218688249       -8.5423471035
 O         5.0180375403       -5.1754152280       -9.5455243618
 C         3.6144324074       -5.5247066175       -7.6535392253
 C         2.2696507072       -5.6492913892       -8.5006112380
 C         0.9721078998       -6.0380720956       -7.6232180408
 O         1.1665074546       -6.0432443585       -6.4215655747
 C        -0.3276514818       -6.4916853062       -8.3557416880
 C        -0.6818726267       -5.3829868954       -9.4262741617
 O        -0.1195264811       -4.3113676507       -9.2424166710
 C        -1.6193812628       -5.6560558118      -10.5314350264
 C        -1.7391099156       -4.5495534453      -11.6113881538
 C        -3.1862613771       -4.6549739920      -12.1553442826
 O        -4.0798430466       -4.2987668111      -11.4190983213
 C        -3.5119493513       -4.9628282715      -13.6207223001
 C        -4.8630133280       -5.6085464566      -13.9388714693
 O        -4.8068153379       -6.8139638083      -14.1827191492
 C        -6.1651350006       -4.7657368634      -13.8909665884
 C        -7.4163256216       -5.4594215661      -13.2342244520
 C        -8.7234735213       -4.5555423765      -13.6133415073
 O        -8.5300852399       -3.5795678117      -14.2715558018
 C       -10.0697605988       -4.8131085490      -12.9505401516
 C        -9.7006269130       -4.0066581511      -11.5951663416
 O        -9.1664377447       -4.5729632260      -10.6835954382
 C       -10.0359163951       -2.4992851363      -11.6418728224
 C        -9.5994468391       -1.5598751610      -10.5461183378
 C       -10.2373791379       -0.0992136929      -10.7022566374
 O       -11.0625434924        0.2022850709      -11.6094753688
 C        -9.7650725657        1.0020104626       -9.6856458503
 C        -8.9906475245        2.1999861089      -10.4380116163
 O        -9.6532956690        3.1349031965      -10.8921353213
 C        -7.5926961742        1.9782979695      -11.0959800237
 C        -7.5130481988        2.4302253458      -12.5952548842
 C        -7.6965912470        1.2293971483      -13.5194657918
 O        -7.4897245989        0.0782064231      -13.1176563388
 C        -8.3553283027        1.5264012210      -14.9435516902
 C        -9.8030133584        2.0571005905      -14.7045354901
 O       -10.0966036933        2.0894943158      -13.4965486501
 C       -10.8633529326        2.5483006535      -15.8315290070
 C       -11.9257611909        3.4001729533      -15.1338475990
 C       -11.5013878354        4.9501886670      -15.1814980600
 O       -10.5961841604        5.4086137052      -15.8280968586
 C       -12.5289314245        5.8997532756      -14.3164337872
 C       -12.7326184023        5.3633682611      -12.7513137617
 O       -11.8375076118        4.7371495779      -12.1869160974
 C       -14.2100553426        5.3638549874      -12.1876078968
 C       -14.4634082387        4.4926653200      -10.8875394822
 C       -14.6979409588        3.0829728179      -11.1902773250
 O       -14.1047598152        2.4225574976      -11.9955961620
 C       -15.8601595797        2.2949576787      -10.5412029524
 C       -16.0419565035        2.7958594912       -9.0745368193
 O       -15.0958366450        3.1381732790       -8.4130092053
 C       -17.3193245268        2.5958538569       -8.2634045687
 C       -17.3157158588        3.4570237442       -6.9966857356
 C       -18.3823424032        4.5389631918       -7.0580525028
 O       -19.4728106648        4.2984889651       -7.3738943141
 C       -18.1360106581        6.0761978299       -6.4655332672
 C       -18.0637082080        6.8935877205       -7.9350782235
 O       -17.3917991737        6.4252708295       -8.8456585019
 C       -18.8540521814        8.2936771743       -7.9620268673
 C       -19.2639766557        6.4069315913       -5.4828897991
 C       -16.7216125496        6.3491016228       -5.7277394763
 C       -17.1654475929        2.3815117971      -11.3325693409
 C       -15.3807942038        0.8053056148      -10.4917053243
 C       -11.8827738909        7.2438397061      -14.3296896910
 C       -13.8812481488        6.0077682999      -15.0159969663
 C        -7.5502692588        2.5851861322      -15.6992490725
 C        -8.6337181184        0.1753758365      -15.6599421319
 C       -10.9889319502        1.4944086362       -8.7799079353
 C        -8.8741381757        0.3154749825       -8.5879075282
 C       -11.1986375545       -4.3659141622      -13.8256737132
 C       -10.2242684503       -6.3227707599      -12.6846307828
 C        -3.4992660189       -3.6107880856      -14.4046283306
 C        -2.3630909911       -5.7977008417      -14.2822635610
 C        -0.1604842983       -7.7749809245       -9.1492094071
 C        -1.5614192883       -6.6428613532       -7.3363223075
 C         4.8128366390       -3.1147206065       -6.5170746091
 C         4.7040402826       -2.2420230773       -8.9556995954
 C        10.5792863130       -1.4688413946      -11.5161789329
 C        11.4547407768       -3.5327401827      -12.3498168271
 C        14.7069785266       -5.5168650332       -5.6985662140
 C        14.1527625808       -7.5762442660       -7.0667341072
 C         9.8374820533       -5.6238084710       -2.3498215991
 C         8.1051434779       -4.3557850337       -3.7763001667
 H        12.4183520809       -3.7875736707       -3.1557954521
 H        11.0903113307       -3.1980538355       -2.0725546990
 H        11.6833119477       -2.1735723809       -3.4379716288
 H         9.2385067878       -8.2999882476       -5.1556710293
 H        10.4369107328       -7.8403490752       -3.8614148701
 H        10.9834460876       -7.8609241926       -6.8490594720
 H        11.6457141134       -8.7828019528       -5.4681050625
 H        14.3869756537       -4.4741910217       -8.4722860952
 H        13.1459580415       -3.5860808478       -7.6589133752
 H        12.6040470047       -5.0551768388      -10.2141335086
 H        13.6772447515       -3.5410888893      -10.3275051813
 H         8.0073784992       -1.9087404965      -10.5083023055
 H         8.7925650296       -2.6120078630       -9.1512821538
 H         7.2081326313       -4.9066580659       -9.8935488460
 H         6.2575987842       -3.5063368157      -10.3999040702
 H         3.1994223948       -5.0683270476       -6.7337712291
 H         4.1631761501       -6.4193087677       -7.3244490863
 H         2.3211415022       -6.3845254167       -9.3208811218
 H         2.3139211049       -4.7637866424       -9.1262326384
 H        -2.7063032614       -5.9323209896      -10.0789947309
 H        -1.4126673765       -6.5732743458      -10.9757729953
 H        -1.0281626818       -4.7802141830      -12.4911761391
 H        -1.5417880954       -3.5084812893      -11.2765515071
 H        -6.3726195058       -4.5340703212      -14.8810345279
 H        -5.9741994091       -3.8994108876      -13.2959186263
 H        -7.1644783856       -5.5793374607      -12.1417718975
 H        -7.5512719073       -6.4544521524      -13.7972859001
 H       -11.1084301634       -2.3857960472      -11.6984008631
 H        -9.5563440493       -2.1113737698      -12.5872820572
 H        -8.5115244156       -1.5755081627      -10.5818089481
 H        -9.8341398796       -1.8288471663       -9.5012991340
 H        -7.3735875023        0.9022709437      -10.9860380490
 H        -6.8185211728        2.3775053977      -10.5762919127
 H        -6.6156304832        2.9215304314      -12.8865757296
 H        -8.3741523672        3.1486667957      -12.7745224519
 H       -11.2685727040        1.6909235146      -16.4413267868
 H       -10.3730570656        3.1154513720      -16.5609883296
 H       -11.9991226872        3.2044240114      -14.0515765333
 H       -12.9489866775        3.3354075906      -15.6038404544
 H       -14.7801765826        4.9233239203      -13.1174408080
 H       -14.5539165136        6.4220563285      -12.1316085116
 H       -15.2128846006        4.9983540151      -10.2101288596
 H       -13.5151471551        4.5105592292      -10.3432435399
 H       -17.4044217534        1.5114804491       -8.0089005855
 H       -18.2566893902        2.8232557605       -8.8051769337
 H       -16.3018551077        3.7260732120       -6.7680495742
 H       -17.4950202523        2.9996279555       -6.0514274186
 H       -19.6095230327        8.1859392161       -8.7882239640
 H       -18.3668602062        9.2853685816       -8.0387089313
 H       -19.3593289612        8.5031655185       -7.0445335406
 H       -19.0946978186        7.4227216655       -5.0863864622
 H       -19.1761844895        5.6394901187       -4.7273768112
 H       -20.2215223316        6.2830101212       -6.0224265834
 H       -15.8445870793        6.0893929085       -6.4005894689
 H       -16.5231356497        5.7501510032       -4.9565450306
 H       -16.7003504852        7.3673326923       -5.4209772364
 H       -17.7558751819        1.6067293901      -10.9496326565
 H       -16.8944294913        2.2080987680      -12.3451681291
 H       -17.6831905056        3.2971083233      -11.1821852799
 H       -16.1917938991        0.1239409347      -10.2055640875
 H       -14.4705012900        0.6159990836       -9.9650816656
 H       -15.1117728479        0.4945097811      -11.4973579489
 H       -12.1776531882        7.8832582732      -15.1750166179
 H       -10.7916637620        7.2469263255      -14.2990303088
 H       -12.3266533915        7.7908439611      -13.4928556370
 H       -14.1755995527        5.0260104270      -15.3278129137
 H       -13.7548288732        6.4672628151      -15.9485705876
 H       -14.5683245587        6.4939009139      -14.3609287318
 H        -6.5710165167        2.2733332729      -15.8166946821
 H        -7.6741408616        3.5669679984      -15.2211075365
 H        -8.0567817174        2.7807019360      -16.6617038966
 H        -7.6882494319       -0.1911096750      -16.1860764847
 H        -9.4631654086        0.1825915125      -16.3660795280
 H        -8.9787428986       -0.5016753967      -14.9184416258
 H       -11.7900237104        1.7594395289       -9.4623999762
 H       -10.5644683417        2.3053996688       -8.2815620628
 H       -11.3470474486        0.6233313826       -8.1734734958
 H        -9.4419641895       -0.5193076671       -8.2449287463
 H        -8.6420087637        0.9567970980       -7.7231639483
 H        -7.9345279270       -0.1099520430       -9.0197257982
 H       -11.3621958153       -3.2944644232      -13.8078099476
 H       -12.2090373944       -4.8643970482      -13.5456121311
 H       -10.8471860706       -4.6625815153      -14.8335157220
 H       -11.2502054888       -6.6666970025      -12.3872284944
 H        -9.5259902653       -6.7861520015      -11.9887720538
 H       -10.0358175177       -6.8519901529      -13.6475524675
 H        -3.8656634647       -3.5709168564      -15.3928236525
 H        -2.4490087969       -3.2530719099      -14.5080470374
 H        -3.9747146519       -2.8182261447      -13.8059698733
 H        -1.5049117040       -5.2206314723      -14.6534455358
 H        -2.8827127755       -6.3029860785      -15.1709934417
 H        -1.9313384575       -6.5739275015      -13.6562747094
 H         0.6223184548       -7.7210830590       -9.8984379446
 H        -1.0605521505       -8.1266297094       -9.6223979405
 H        -0.0110224324       -8.5736077058       -8.4630257108
 H        -1.7784450491       -5.6942725501       -6.7747218907
 H        -1.5512230569       -7.5261373864       -6.6184949384
 H        -2.5164865574       -6.8302942564       -7.8574786285
 H         5.3333999404       -3.7556552798       -5.8879390138
 H         3.7089068267       -3.1586570827       -6.3393767113
 H         5.1579731939       -2.2229003268       -6.1914438220
 H         3.8497594155       -1.7471868415       -8.6953033251
 H         4.4646797101       -2.5474821259      -10.0068318590
 H         5.4661821349       -1.5185626923       -9.0037414588
 H        10.4717453430       -1.3590222436      -12.6068177889
 H        11.3574583616       -0.7988081408      -11.2051169241
 H         9.6147258313       -1.0212945716      -11.1214025224
 H        10.9334941297       -3.5738864268      -13.2865284098
 H        11.6093290351       -4.6332280279      -12.3012012833
 H        12.4254838934       -3.0877861125      -12.6301191274
 H        14.6314093003       -4.4386971623       -6.0269972453
 H        15.6620746462       -5.8949288456       -6.0071157506
 H        14.6952521625       -5.4148995002       -4.6269526163
 H        14.4745638969       -8.3183129104       -6.2682940115
 H        14.9240930929       -7.3825225007       -7.8131290825
 H        13.4268412603       -8.1710380456       -7.6744923532
 H         9.8092289180       -4.8450498505       -1.6054548490
 H        10.7970841734       -6.0827535774       -2.3318352691
 H         9.0125244496       -6.2705211870       -2.0272374300
 H         7.3934090989       -4.8814018316       -3.1000705412
 H         7.8838727660       -4.4763984107       -4.8355953828
 H         8.0324053303       -3.3217951178       -3.5856722295
 Na        9.5011252402       -3.9884726666       -7.0691907223
 Na      -11.9034364951        2.2886462731      -11.6461019311
