232

 C        11.4736045191       -3.4998793623       -3.1003123692
 C        10.5802712245       -4.0191542394       -4.2661132584
 O        10.7198743604       -3.5469263073       -5.4023957131
 C         9.4276097281       -5.0337845137       -3.8432344356
 C         9.4934580292       -6.0956978029       -4.9484141936
 O         9.2920277998       -5.8224475126       -6.1415488839
 C         9.9970037432       -7.5658293835       -4.6849534088
 C        11.2069223903       -7.8004436101       -5.5796751700
 C        12.2346221562       -6.7144777881       -5.3616967551
 O        12.2641631142       -6.0664618343       -4.3486742022
 C        13.1826650283       -6.3485746015       -6.5765003839
 C        12.4718362617       -5.3019666386       -7.5789375567
 O        11.3748582381       -5.6469593616       -8.0426667385
 C        13.3209196526       -4.2317942882       -8.3047878883
 C        12.9204790154       -4.0300812485       -9.7422279830
 C        11.6896074410       -3.1972749987       -9.7573369504
 O        11.2259243357       -2.7263495221       -8.6942529856
 C        10.8585219958       -2.9454340964      -11.1015133017
 C         9.2937147812       -3.4380081031      -10.9525695167
 O         8.9359035804       -4.4324805901      -11.4749382820
 C         8.2508552915       -2.5944997373      -10.0476085068
 C         7.3090880335       -3.6511892460       -9.4125013552
 C         6.6777104219       -3.1563531259       -8.1232886753
 O         7.4248847610       -2.8439262401       -7.1686549722
 C         5.1249946887       -3.1622769280       -8.0167816990
 C         4.5082717372       -4.5224346199       -8.3730013233
 O         4.7823908237       -5.0236229624       -9.4073655203
 C         3.6008837886       -5.3108658896       -7.3476989670
 C         2.1726581919       -5.3184650349       -8.0208874006
 C         1.0835148679       -6.3394217487       -7.5437561870
 O         1.2858073862       -7.0455214347       -6.5813321202
 C        -0.2626271426       -6.6342139106       -8.5219611327
 C        -0.5170163522       -5.5574015435       -9.5116193363
 O        -0.0878190570       -4.4145804753       -9.4225289114
 C        -1.3880037231       -5.8501925806      -10.6997723858
 C        -2.0071582922       -4.5251644876      -11.2914549886
 C        -3.3757124053       -4.8230631210      -12.0293607813
 O        -4.4491021625       -4.9741655831      -11.5014006112
 C        -3.3571110550       -4.8763713084      -13.6603214327
 C        -4.8675504028       -5.4467761749      -13.8858553329
 O        -5.1038797168       -6.6315040253      -13.9538984488
 C        -6.0485083848       -4.4073815910      -13.9829043579
 C        -7.2896691116       -5.1462668757      -13.6930267993
 C        -8.5335796782       -4.1923017203      -13.6177952300
 O        -8.5546747253       -3.3404901343      -14.4292699485
 C        -9.8183145724       -4.5823488341      -12.6970908730
 C        -9.8109076554       -3.6342487784      -11.4619754814
 O        -9.6658398944       -4.1121457263      -10.3470197079
 C       -10.0513750382       -2.1366272589      -11.5030372686
 C        -9.6982346919       -1.3454850386      -10.2483574830
 C       -10.3186986086        0.0818217857      -10.2607602542
 O       -11.3242499327        0.4422554420      -10.9215456051
 C        -9.6168662390        1.1711234685       -9.3543320603
 C        -8.9764887367        2.0904523174      -10.5787400888
 O        -9.6241993234        3.0614067363      -11.0392140666
 C        -7.6984444270        1.8729388870      -11.2509190391
 C        -7.5900545707        2.2943333812      -12.7084178130
 C        -7.5737058208        1.1237357771      -13.7788488868
 O        -7.1059798633        0.0685704368      -13.4409508725
 C        -8.3618698606        1.4337599707      -15.1313826483
 C        -9.7706243475        2.0587878357      -14.7496714278
 O       -10.2883016000        1.8847691765      -13.6463169498
 C       -10.6111896514        2.6519620824      -15.8744616534
 C       -11.9707192948        3.4202471708      -15.5602421618
 C       -11.7097773533        4.8448664874      -15.2469416031
 O       -10.6493461988        5.3495950449      -15.5657031560
 C       -12.7441429316        5.7628205397      -14.4941775318
 C       -13.1660271629        5.0104144240      -13.1438367989
 O       -12.2420271882        4.6887106079      -12.3871683786
 C       -14.5447491879        5.1003697417      -12.4937061661
 C       -14.5972730138        4.2024410781      -11.1676035066
 C       -14.7028791160        2.7239133838      -11.3246720252
 O       -13.9384786198        2.0490066454      -11.9778941035
 C       -15.9190791550        2.0990002385      -10.5840264812
 C       -15.9800901972        2.4657220072       -8.9735777258
 O       -15.0225768486        2.3764245943       -8.2207960334
 C       -17.3306662583        3.0028627158       -8.4449368996
 C       -17.3839394508        3.1882028033       -6.9393596134
 C       -18.3880340857        4.4512530704       -6.6490624112
 O       -19.5696902821        4.3533010213       -6.7319054136
 C       -17.6996186870        5.8467683246       -6.3026487170
 C       -17.8475505460        6.7016774918       -7.7061874420
 O       -17.0525757653        6.4596170463       -8.5761480147
 C       -18.7744782089        7.8947438324       -7.8222704001
 C       -18.7210039410        6.5193586889       -5.2762723785
 C       -16.2508645727        5.8773413431       -5.6274111621
 C       -17.1989893869        2.6197531830      -11.3554446039
 C       -15.7569140981        0.5949048946      -10.6687332656
 C       -12.1497941518        7.1328363440      -14.0929769852
 C       -14.1033694204        5.9812830157      -15.3914324779
 C        -7.6186660553        2.6489391432      -15.8428632157
 C        -8.7019761372        0.1350132683      -15.8707532354
 C       -10.6955419645        1.8206891610       -8.4827041631
 C        -8.5335393473        0.7108930204       -8.4624808024
 C       -11.0791682244       -4.2364681275      -13.6150139707
 C        -9.7597495092       -6.0606604136      -12.2743728671
 C        -3.1878315698       -3.4873088031      -14.3206488012
 C        -2.3757171116       -5.8890593195      -14.1803964815
 C         0.1840043359       -8.0240281500       -9.2457205654
 C        -1.5764614405       -6.8326333087       -7.7687477428
 C         4.7199653340       -2.6840645997       -6.5518965761
 C         4.4466992720       -2.3141244769       -9.2233189698
 C        10.9270639151       -1.4809640712      -11.5260018680
 C        11.3974121841       -3.8337649960      -12.2238015541
 C        14.5409313649       -5.8328207670       -6.0661994301
 C        13.4339571591       -7.5338744119       -7.5840356997
 C         9.4910605212       -5.6207857636       -2.4370158006
 C         8.0920595787       -4.2127726284       -4.0211471991
 H        12.2304642105       -4.1483868430       -2.8020402384
 H        10.8440186909       -3.3327628542       -2.2635186878
 H        11.9771390552       -2.6265221370       -3.3786598547
 H         9.2682652788       -8.2106751807       -5.1672571298
 H        10.1897358374       -7.6466476866       -3.6668751413
 H        10.9436697483       -7.9917135770       -6.6652485694
 H        11.6167883063       -8.7263192450       -5.1459650162
 H        14.3094181376       -4.5575858375       -8.2552107187
 H        13.1427794874       -3.2274473111       -7.8757099562
 H        12.6326763033       -4.9463587628      -10.1668250473
 H        13.8036916763       -3.5498425348      -10.2766677667
 H         7.6941885602       -1.7539808001      -10.5558387177
 H         8.9231820727       -2.1375422167       -9.3403670252
 H         7.8701430763       -4.5663883733       -9.1522005978
 H         6.5849189946       -4.0011482127      -10.2103060245
 H         3.5721388579       -4.7703315499       -6.3738813459
 H         3.8728365949       -6.3301562168       -7.0260107223
 H         2.4632781342       -5.4328659664       -9.0728253603
 H         1.7290882972       -4.3154385356       -8.0796469966
 H        -2.1509112608       -6.6576801256      -10.3236542550
 H        -0.8702798249       -6.3223623506      -11.4865439437
 H        -1.2698464961       -4.1078111516      -12.1071174428
 H        -1.9887946559       -3.9141214332      -10.4290655221
 H        -6.2040817665       -3.8585968181      -14.8577462933
 H        -5.8796933365       -3.7278034185      -13.1694952372
 H        -7.1018313098       -5.6873504813      -12.7797819244
 H        -7.4670885691       -5.9120341117      -14.4717668147
 H       -11.0903410658       -1.8996417577      -11.6381278108
 H        -9.4390101209       -1.6766126167      -12.3388843468
 H        -8.6085636126       -1.2375263259      -10.0325902026
 H       -10.1164957019       -2.0076977295       -9.4135595976
 H        -7.3390701007        0.7904031793      -11.1726761263
 H        -6.9323878221        2.3948296471      -10.7384398300
 H        -6.7293849847        2.9295707947      -12.8121610666
 H        -8.3922329502        3.0158222720      -13.0609821933
 H       -10.9758139657        1.7364451169      -16.4124775363
 H       -10.0264915760        3.0996747230      -16.5592121032
 H       -12.4298793301        2.9913118349      -14.6592671840
 H       -12.6374549264        3.3888541396      -16.4679881601
 H       -15.3434654050        4.7925061070      -13.2593709631
 H       -14.6043281115        6.1591014681      -12.2097757490
 H       -15.3737847237        4.6620172210      -10.5395701440
 H       -13.6689835193        4.3392409933      -10.6643724990
 H       -18.2465482174        2.4721419490       -8.7504804891
 H       -17.5112912441        4.0031401638       -8.8579309629
 H       -16.4059344426        3.2368444362       -6.5246696083
 H       -17.7700754407        2.2843840817       -6.4849906032
 H       -19.7261126857        7.6335679964       -7.1779468425
 H       -19.1271391087        7.9522932404       -8.8897855406
 H       -18.4045524514        8.9058125767       -7.5952943576
 H       -18.4903721744        7.6111359489       -5.3761477427
 H       -18.3601272088        6.1480336792       -4.3066704209
 H       -19.7162144527        6.2056046994       -5.4460814595
 H       -15.4588174241        5.6631401296       -6.3828767250
 H       -16.1647601416        5.2198347273       -4.8090529234
 H       -16.0210151692        6.8830904929       -5.2578314338
 H       -18.1393676892        2.1518024839      -10.9800457303
 H       -17.1262098059        2.4601871256      -12.4581955868
 H       -17.1825566427        3.7376745869      -11.1540614737
 H       -16.5508466130        0.0522529824      -10.0753572094
 H       -14.8082335004        0.3621228457      -10.2445748177
 H       -15.7759125698        0.1323245239      -11.6851980086
 H       -11.2446789736        7.3782177037      -14.6341654420
 H       -11.7243925659        7.0952416346      -13.1105373310
 H       -12.9288047816        7.8553027484      -14.1660853357
 H       -14.5479011112        4.9683902997      -15.5622407812
 H       -13.8828300240        6.4139866631      -16.3407145165
 H       -14.7739034242        6.6234063773      -14.8095820525
 H        -6.6706904726        2.2608195279      -16.1713507601
 H        -7.5105173529        3.4292172815      -15.2417397206
 H        -8.2405350267        2.9783470061      -16.6276076463
 H        -7.7561358841       -0.5298452114      -15.9028622301
 H        -9.0681486671        0.3127853551      -16.9145425842
 H        -9.4088335478       -0.4164372126      -15.2823447134
 H       -11.6083606714        1.9930617870       -8.9977342383
 H       -10.2322014834        2.8022555970       -8.2715223909
 H       -10.7938266839        1.1360087416       -7.6541692758
 H        -8.8955284418        0.2202159810       -7.5821369151
 H        -7.9383012042        1.6205717410       -8.0987089104
 H        -7.8755678973       -0.0470639953       -8.8995453899
 H       -10.8400614686       -3.4612027037      -14.2617855065
 H       -11.8273532328       -3.7646026130      -12.9252734664
 H       -11.5239473444       -5.1289625137      -14.0064169274
 H       -10.6916282050       -6.3365162178      -11.6968757638
 H        -8.8589385961       -6.2411525638      -11.6628093097
 H        -9.5897207268       -6.7532848808      -13.0738556997
 H        -2.9865261947       -3.4954599160      -15.3825952336
 H        -2.2784719999       -2.9523633829      -13.9558593451
 H        -4.0593226441       -2.7960723212      -14.2320414072
 H        -1.4074324029       -5.9615398282      -13.6389229028
 H        -2.0887021336       -5.7035081142      -15.2427971938
 H        -2.8159112819       -6.8114759601      -14.0957488825
 H         0.9899047028       -7.9875623602       -9.9180317611
 H        -0.6116719382       -8.5026156430       -9.8167019165
 H         0.4309454511       -8.7215122105       -8.4201453207
 H        -2.2047959342       -5.9554292325       -7.5913253604
 H        -1.5846079484       -7.3179869729       -6.7801269682
 H        -2.1136580880       -7.4573114148       -8.4295343628
 H         4.8675695517       -3.4173567903       -5.7661602197
 H         3.6752916553       -2.2958865976       -6.4559282518
 H         5.2984104371       -1.8215372000       -6.2863606946
 H         3.3888418347       -2.5057225555       -9.2872877891
 H         4.9151184549       -2.5024027084      -10.1823441137
 H         4.4535346312       -1.2329560512       -9.0924731254
 H        10.1113133791       -1.0918346315      -12.1530648533
 H        11.8333676954       -1.2894826906      -12.1599443308
 H        11.1994450871       -0.7902388227      -10.7044968659
 H        10.9328691532       -3.8046423106      -13.2127304147
 H        11.5039478987       -4.9052394494      -11.9029541648
 H        12.4771332829       -3.7242351449      -12.4223441515
 H        14.5556562828       -5.6809413883       -4.9481490641
 H        14.6784587729       -4.8026291835       -6.3863179407
 H        15.3669651788       -6.4423889972       -6.3427592976
 H        14.0649222227       -8.2832529989       -7.0998261929
 H        14.0790603323       -7.1049965303       -8.3244054688
 H        12.6479613507       -8.1303102779       -7.9935789863
 H         9.4032065375       -4.8050459593       -1.7426971303
 H        10.4119206462       -6.1763207604       -2.2640512927
 H         8.6660970182       -6.3444996542       -2.2685235093
 H         7.3201614482       -4.9572243641       -4.3281382882
 H         8.1206324749       -3.4871604487       -4.8428559280
 H         7.8591752784       -3.7718399253       -3.0884131342
 Na        9.4891110163       -3.8135975626       -7.4421239723
 Na      -11.7418527203        2.5797932205      -11.7660712584
