232

 C        11.4769903714       -3.5506846947       -3.0165609810
 C        10.6649216411       -4.0233608994       -4.1258947356
 O        10.8476311039       -3.5744864845       -5.2728318735
 C         9.3104957162       -4.9616950439       -3.9233819482
 C         9.4264706236       -6.0699434623       -5.0850495595
 O         9.0882840750       -5.8031435244       -6.2287771319
 C         9.8645904920       -7.4847976443       -4.8613005424
 C        11.2081637236       -7.7398107545       -5.5809977073
 C        12.2569313667       -6.6845019475       -5.5206622711
 O        12.5713113559       -6.1427842588       -4.4749500827
 C        13.1885185444       -6.5183497380       -6.7639781209
 C        12.4995121466       -5.4688305807       -7.7190724662
 O        11.3596763141       -5.5820639288       -8.0262172052
 C        13.3861663506       -4.3589285191       -8.3213616816
 C        12.9672221708       -3.7846699518       -9.7502495766
 C        11.4674062456       -3.2053341607       -9.7669275283
 O        11.0078144353       -2.6762042856       -8.7593819625
 C        10.8673799990       -3.0226316479      -11.1611907538
 C         9.3432966867       -3.4239677305      -10.9985683799
 O         9.0015490231       -4.4253618631      -11.5563484916
 C         8.3851355256       -2.5999938136       -9.9956541797
 C         7.2467937460       -3.4670990381       -9.5032082975
 C         6.5860357679       -3.0764779747       -8.1701447339
 O         7.2642664872       -2.6801130897       -7.2277162584
 C         5.0131692088       -3.0456229338       -7.9942038447
 C         4.4298476224       -4.5584919631       -8.2901054472
 O         5.0466120114       -5.2263857022       -9.1247115256
 C         3.3922211116       -5.2042575302       -7.3210125112
 C         1.9773191339       -5.2380119294       -7.8971362797
 C         1.1443165885       -6.4371915645       -7.6846571989
 O         1.3497462136       -7.2377783354       -6.7940892967
 C        -0.0395977560       -6.7754387332       -8.6638359194
 C        -0.4673211252       -5.5684100015       -9.5860828160
 O        -0.0771847775       -4.4359277151       -9.3926065951
 C        -1.4012024555       -5.8424817804      -10.7066412055
 C        -2.0246089303       -4.5360519966      -11.2779770442
 C        -3.3963222453       -4.9645461863      -11.8919639316
 O        -4.4577451175       -5.1804516746      -11.3332912239
 C        -3.4086972954       -4.9339995943      -13.5572390350
 C        -4.9073425656       -5.3528182382      -13.9924964199
 O        -5.1485889199       -6.5388223619      -14.1644536663
 C        -6.0259778167       -4.3208192880      -14.1217300868
 C        -7.4213950396       -4.9631835721      -13.6413929654
 C        -8.5609544530       -3.9756588672      -13.5701647668
 O        -8.6757174524       -2.9839053868      -14.3174668209
 C        -9.7414903279       -4.4060787910      -12.6043532381
 C        -9.8530266151       -3.4723110514      -11.3853005550
 O        -9.7415853422       -3.8808217001      -10.2719725307
 C       -10.0305832986       -2.0017548555      -11.6175948053
 C        -9.7183535229       -1.1851437728      -10.2775945052
 C       -10.2785736215        0.1958635017      -10.2439531565
 O       -11.3968119086        0.4590120319      -10.6657151752
 C        -9.4667083473        1.2330371453       -9.4264984524
 C        -8.9201259024        2.1189858591      -10.5196052073
 O        -9.5992471252        2.9978983266      -11.0026633521
 C        -7.6531407171        1.7421088371      -11.1544543444
 C        -7.5445820190        2.3415278896      -12.6425774277
 C        -7.7601240903        1.2873608612      -13.7827282499
 O        -7.1904607618        0.2091387098      -13.6534388229
 C        -8.4300347598        1.5280637584      -15.2005456194
 C        -9.9175386160        2.0453236597      -14.9057183096
 O       -10.4575948060        1.7558246086      -13.8283879134
 C       -10.7002087666        2.6999780501      -16.0095600800
 C       -11.9236925322        3.3548285792      -15.3976354743
 C       -11.7838209147        4.9351259825      -15.1534708057
 O       -10.6715459599        5.3082425555      -15.3638325285
 C       -12.9066544191        5.7720991928      -14.5625899563
 C       -13.2050738765        4.9026618868      -13.2091207925
 O       -12.3223723856        4.5037782718      -12.5065411370
 C       -14.6543607309        4.6193515907      -12.6646855234
 C       -14.7276196589        4.1615033504      -11.1454691819
 C       -14.8833175198        2.6509395319      -11.2113080399
 O       -13.9242205982        2.0405190636      -11.7226080536
 C       -16.1446139871        2.0584504145      -10.6275229450
 C       -16.1247322075        2.3987597669       -9.1013186970
 O       -15.1974135077        2.1014656616       -8.4024334629
 C       -17.1939479008        3.3011702932       -8.6372560449
 C       -17.3403090567        3.3319886993       -7.0534114618
 C       -18.2207698408        4.4221318757       -6.5063509566
 O       -19.4340735603        4.2740658392       -6.3634176125
 C       -17.5650050484        5.8627957925       -6.1438606093
 C       -17.6358080183        6.5620466869       -7.4806117270
 O       -16.7857940807        6.2007143520       -8.3023848943
 C       -18.8048174254        7.5181298601       -7.8768690844
 C       -18.3678927801        6.5305482683       -4.9807648589
 C       -16.1013325150        5.7029532415       -5.7686408647
 C       -17.3325813559        2.5540818304      -11.5403682457
 C       -16.1037503457        0.5235230945      -10.7329345788
 C       -12.3677212704        7.1870666004      -14.2561984648
 C       -14.0565167151        5.7810853406      -15.5494794619
 C        -7.4230913013        2.4118691879      -15.9814494584
 C        -8.4488067370        0.2049017890      -16.0236031068
 C       -10.2694033005        2.3006744042       -8.5489296096
 C        -8.3477621746        0.6188553662       -8.4990802772
 C       -11.0753301028       -4.1934800768      -13.3259904113
 C        -9.6594411249       -5.8783861087      -12.0986888731
 C        -2.9541213558       -3.4780089236      -14.0073457150
 C        -2.4074637775       -6.0606247991      -14.1692946848
 C         0.2827634807       -7.9829762439       -9.4030685718
 C        -1.2858483904       -7.0110374096       -7.6770502357
 C         4.6691572695       -2.3692883372       -6.6393550253
 C         4.5582847264       -1.9106209829       -9.0462302942
 C        10.8665941135       -1.5025773440      -11.4369167136
 C        11.4669851807       -3.7900059741      -12.3363073708
 C        14.4943123608       -6.0322433567       -6.2702892976
 C        13.3688677239       -7.8754588909       -7.5147667280
 C         9.2876429283       -5.5721136979       -2.5802338055
 C         8.0077926419       -4.1925219514       -4.2279563955
 H        11.4348463585       -4.2110090630       -2.0798580757
 H        11.0396262942       -2.5362266826       -2.7245188823
 H        12.5853816548       -3.4823941006       -3.3496793872
 H         9.0925950663       -8.0618527216       -5.3577968274
 H         9.9448799405       -7.5307460641       -3.7474548500
 H        11.0211738243       -7.8857164165       -6.6205598281
 H        11.5892643674       -8.6808127158       -5.1034035427
 H        14.3929123275       -4.8300280145       -8.4474636897
 H        13.3762449256       -3.5455427686       -7.6319962630
 H        13.2447221265       -4.6201250055      -10.4788218433
 H        13.4966265350       -2.8776309322       -9.9308297529
 H         8.1042603662       -1.7198463213      -10.5708009781
 H         9.1468646657       -2.2270469415       -9.2378197685
 H         7.8405939719       -4.3936111328       -9.2182003337
 H         6.5747194396       -3.8029530006      -10.2848594974
 H         3.3844846718       -4.9120558049       -6.2788162369
 H         3.7205449842       -6.2409746997       -7.2813914761
 H         2.2352813505       -5.1592499257       -8.9637387738
 H         1.4315180595       -4.3115809495       -7.7191862048
 H        -2.1522982239       -6.5071533908      -10.3772264920
 H        -0.7433599893       -6.3539941599      -11.5037107162
 H        -1.4581983999       -4.0501788670      -11.9731872926
 H        -2.0282547875       -3.9778759822      -10.2883818262
 H        -6.0693407042       -3.8589061977      -15.1614584431
 H        -5.7591496366       -3.4513236061      -13.4774289512
 H        -7.2585911711       -5.3703138466      -12.5858126585
 H        -7.8485716780       -5.8249535099      -14.2140783659
 H       -11.1193970403       -1.8735800591      -11.8900512456
 H        -9.4522171262       -1.6170196827      -12.4228615971
 H        -8.6799967501       -1.2239851542      -10.0093061764
 H       -10.2192060665       -1.8175995135       -9.5907252173
 H        -7.5739719913        0.6944404234      -11.2457643126
 H        -6.7968489669        2.1440159247      -10.5515339237
 H        -6.4636680798        2.5589874276      -12.8279706396
 H        -7.9162047843        3.2950677714      -12.8553148583
 H       -10.9978839906        1.8934840408      -16.6743160755
 H       -10.0597560959        3.4671986165      -16.6693851126
 H       -12.2210029140        2.8583452728      -14.4605657789
 H       -12.6586435758        3.2848112575      -16.1736057185
 H       -15.1290066945        3.8298599035      -13.2309924378
 H       -15.1394405809        5.6082235258      -12.7564505251
 H       -15.5785234067        4.6942357114      -10.6818310844
 H       -13.7726303065        4.3867074610      -10.5571760956
 H       -18.1562814825        3.0884709298       -9.1085511016
 H       -17.0331135901        4.3615799658       -8.9185966447
 H       -16.2715859299        3.4769040968       -6.6086725814
 H       -17.7697073125        2.3727473647       -6.6968762944
 H       -19.5485439661        7.6335411101       -7.1675605965
 H       -19.1868381470        7.3933334403       -8.8726802569
 H       -18.3159020210        8.5054213502       -7.9224104493
 H       -18.0225383507        7.5153126474       -4.9679907478
 H       -18.0964377997        6.0083835725       -4.0939677689
 H       -19.4747050078        6.4177684965       -5.2059157690
 H       -15.5356788111        5.2393097073       -6.6228046807
 H       -15.9936270479        5.2458109377       -4.7787789252
 H       -15.6365223387        6.6573572614       -5.6751731915
 H       -18.1620432190        1.9227390413      -11.3377394015
 H       -17.1030995400        2.4120718599      -12.5710258741
 H       -17.5521774835        3.5579218883      -11.4141513519
 H       -16.9381391586        0.0531258747      -10.2864416731
 H       -15.1967052707        0.1045686809      -10.1985332556
 H       -16.0888829446        0.2187007876      -11.7614433758
 H       -11.9723390439        7.6219129718      -15.1757780293
 H       -11.4395903531        6.9973446582      -13.7004560972
 H       -13.0579796332        7.8017113566      -13.6442259777
 H       -14.2451094928        4.7973666397      -15.9113959807
 H       -13.8443808643        6.5874998663      -16.2992098601
 H       -14.9724632175        6.0566431455      -15.0220087647
 H        -6.4830278674        1.8559413252      -15.9132836379
 H        -7.2970166631        3.4047096750      -15.2956765547
 H        -7.7884150130        2.5712525004      -17.0559768738
 H        -7.4675480549       -0.1628275455      -16.1322915492
 H        -8.8972614221        0.3339857630      -16.9846258792
 H        -8.9178614933       -0.5855957586      -15.3970118602
 H       -11.2547118773        2.5084056230       -9.0507583831
 H        -9.7403105863        3.2069294694       -8.4774812586
 H       -10.3325011773        1.7054056940       -7.6165883982
 H        -8.6397645830       -0.4028290706       -8.1335735677
 H        -8.3583985758        1.1359056368       -7.6102054696
 H        -7.3133887900        0.4732038313       -8.8165232285
 H       -10.9823816882       -3.2446269808      -13.9560630793
 H       -11.9174563681       -4.1118481219      -12.6439975676
 H       -11.2572321293       -5.1382567219      -13.8875146834
 H       -10.5992612162       -6.1144216426      -11.6603992286
 H        -8.8707201544       -6.0664865055      -11.3767901138
 H        -9.4248868179       -6.6360055849      -12.9018711424
 H        -2.2640336292       -3.5017236993      -14.8597905434
 H        -2.4542290382       -2.8863133455      -13.2709909323
 H        -3.6934321529       -2.8622650985      -14.4880046769
 H        -1.4130239920       -6.2096731001      -13.7401354897
 H        -2.1604391774       -5.7520053102      -15.2019899261
 H        -2.9493140655       -7.1017560639      -14.2176677346
 H         1.3019943143       -7.9206502092       -9.9356661057
 H        -0.3612482076       -8.1505531835      -10.2451506140
 H         0.3830473253       -8.8186211037       -8.7898735336
 H        -1.6872472367       -6.0534411443       -7.3375953141
 H        -0.9017675954       -7.3205877630       -6.6990307789
 H        -2.1450366784       -7.7236727047       -7.9173815872
 H         5.0488948507       -2.8903463830       -5.7842936714
 H         3.5948989471       -2.3610031893       -6.4007135336
 H         4.9604035438       -1.3411284926       -6.6706411527
 H         3.5590210302       -1.5765626304       -8.9421892690
 H         4.7919727529       -2.2115241381      -10.1052265914
 H         5.1266019237       -1.0201240114       -8.9453021356
 H        10.4232366308       -1.3736686273      -12.4238569911
 H        11.8053649560       -1.0308016420      -11.5367880010
 H        10.3750756119       -0.8765531275      -10.6940982049
 H        10.8866977888       -3.5235399029      -13.2119377127
 H        11.6626207490       -4.8196402049      -12.2718253179
 H        12.4900764597       -3.4981178197      -12.5934636627
 H        15.0752373829       -6.8438235217       -5.9127002757
 H        14.3432156855       -5.4629430814       -5.3707942925
 H        15.1110968907       -5.5420714131       -7.0677216723
 H        13.6334504819       -8.7204734344       -6.8488863336
 H        14.1761574557       -7.8395458619       -8.2857291042
 H        12.3905787124       -8.2359901065       -7.9168631297
 H         9.4176766930       -4.7370804799       -1.8587924280
 H        10.0590564672       -6.2830945262       -2.3462552464
 H         8.3748462610       -6.0966783579       -2.4270976835
 H         7.1518367303       -4.8316034157       -4.2399195232
 H         8.0038384030       -3.7547028781       -5.2097437533
 H         7.9959033148       -3.4397865627       -3.4305137199
 Na        9.4410406362       -3.6941279101       -7.1565361524
 Na      -11.7971190085        2.4945588928      -11.6082913865
