232

 C        11.4570465522       -3.8213821457       -2.8078346261
 C        10.5517593881       -3.9993487274       -4.0323621073
 O        10.7889841351       -3.3685692358       -5.0587505060
 C         9.2461397348       -4.8268187465       -3.9729740645
 C         9.3046639083       -5.9278793603       -5.1360546194
 O         8.8613910255       -5.7468275030       -6.2570979122
 C         9.9514035757       -7.3381635658       -4.8503094571
 C        10.9414589538       -7.6572004115       -6.0174972329
 C        12.2375747382       -6.8338392260       -5.7892131090
 O        12.4044395332       -6.1880952907       -4.7529280672
 C        13.2760426689       -6.7477380933       -6.9881110849
 C        12.6177812801       -5.5485098355       -7.7370205410
 O        11.4191972891       -5.5284764407       -7.7607864985
 C        13.4869642964       -4.3917628069       -8.3034994956
 C        12.8467047958       -3.9209402353       -9.7532462301
 C        11.4122228388       -3.1862008801       -9.6857866003
 O        10.9778651851       -2.7740042545       -8.6620663786
 C        10.6586793292       -2.9431182861      -11.0756270645
 C         9.2538651874       -3.3507535347      -10.9946063050
 O         8.9738318324       -4.4064903575      -11.5178733090
 C         8.2058775014       -2.5726010818      -10.1760969203
 C         7.0560688467       -3.4335435835       -9.6918589838
 C         6.6132744433       -3.0543280182       -8.2214627517
 O         7.4337668456       -2.8337953015       -7.3943450564
 C         5.0585885786       -2.9834447896       -7.8772442251
 C         4.5998572915       -4.4433566140       -7.9996186536
 O         5.0406124274       -5.1617260360       -8.9280662844
 C         3.4038733419       -4.9118889678       -7.2759301839
 C         2.1212320294       -5.0275500990       -8.1030616624
 C         1.4937448834       -6.3581209275       -7.8433077974
 O         1.9355482184       -7.1665540182       -7.0404382214
 C         0.1721734379       -6.7818879035       -8.6453143717
 C        -0.5017999444       -5.5906764781       -9.4833239244
 O        -0.3330872648       -4.4056757190       -9.3103593114
 C        -1.5166023013       -6.0742307906      -10.5262253240
 C        -2.1194224630       -4.7290867085      -11.2016339705
 C        -3.4705833785       -4.9570488313      -11.9768822874
 O        -4.4679395953       -5.4187631765      -11.4027440093
 C        -3.5497035641       -4.8979265578      -13.4996723991
 C        -5.0418383123       -5.2206270792      -14.0365095593
 O        -5.2185730806       -6.2640306524      -14.6418774913
 C        -6.1439539108       -4.1570881735      -13.9632872232
 C        -7.3625345632       -4.6739116770      -13.3664503748
 C        -8.5834255535       -3.7404877588      -13.3402499760
 O        -8.5839673568       -2.6606101699      -13.9716788328
 C        -9.8792372507       -4.2607847142      -12.5601746672
 C        -9.8409823260       -3.3779921295      -11.2518171953
 O        -9.6055762723       -3.8658926345      -10.1688210849
 C       -10.0716714124       -1.8710811685      -11.4094063006
 C        -9.5158169060       -1.0028488457      -10.2217071268
 C       -10.0817428469        0.3633798267      -10.0054307094
 O       -11.2382183074        0.6052644760      -10.2632198707
 C        -9.1778787199        1.5564249424       -9.5359549553
 C        -8.7659795530        2.3403074330      -10.7053511452
 O        -9.4575240407        3.0972850466      -11.2996319146
 C        -7.3133747910        1.9317173874      -11.3160947687
 C        -7.3706270179        2.3543909605      -12.7864796339
 C        -7.7030873674        1.1865770368      -13.8294748018
 O        -7.3512984301        0.0427413873      -13.5752688517
 C        -8.4663696909        1.5021226923      -15.1221458936
 C        -9.9215641233        2.0021390696      -14.7359965125
 O       -10.4269436879        1.7973162048      -13.6685157599
 C       -10.5996467793        2.5604592013      -15.9838867252
 C       -11.8542587502        3.3843304119      -15.7974129849
 C       -11.6218147023        4.9826207612      -15.3206687602
 O       -10.5481655603        5.4762319314      -15.2032913579
 C       -13.0658441180        5.5782896661      -14.6532490090
 C       -13.2489622413        4.7867149841      -13.2759995931
 O       -12.3440901726        4.5605631142      -12.5271573743
 C       -14.7843316015        4.5194749334      -12.9235009251
 C       -14.9605565578        3.9825159610      -11.4727307729
 C       -15.0873038365        2.5050186310      -11.2367991726
 O       -14.0673571599        1.7736295641      -11.3071469559
 C       -16.4715102123        1.9229721129      -10.8934648014
 C       -16.4220614110        2.2497451508       -9.1771331416
 O       -15.6246327833        1.6870150281       -8.4977984886
 C       -17.3241711265        3.3279736727       -8.5720066714
 C       -17.3065599848        3.2225432443       -7.0246720018
 C       -17.9558807843        4.3773474591       -6.3462829250
 O       -19.0691810996        4.2569477924       -5.7805664051
 C       -17.2422252067        5.6918459363       -6.0607308232
 C       -17.3328068342        6.5330955801       -7.4218127694
 O       -16.4062978435        6.5039356311       -8.2244017294
 C       -18.7990973399        7.0728498391       -7.7388940983
 C       -18.0261433445        6.4632645421       -4.9121923953
 C       -15.7731713487        5.4066865484       -5.6352989765
 C       -17.7615624011        2.5501470857      -11.5455963123
 C       -16.4301765183        0.3885903749      -10.9369296854
 C       -12.7741590193        7.0420863596      -14.2531544888
 C       -14.2232089360        5.4583994923      -15.6007717660
 C        -7.7315006678        2.6248699859      -15.8761915472
 C        -8.4972134099        0.2332070931      -16.0927652601
 C       -10.2428242986        2.2044166643       -8.5051476313
 C        -8.0967571159        0.9100458749       -8.6006923143
 C       -11.1308471909       -4.2684360603      -13.5145329539
 C        -9.7243309906       -5.7390714058      -12.0190718058
 C        -3.1885018844       -3.5100174592      -14.1380157687
 C        -2.6009454324       -6.0364134556      -14.0390093635
 C         0.5891411029       -7.9636005561       -9.5707603836
 C        -0.9087712625       -7.2687540695       -7.6231848705
 C         4.8323456686       -2.1339507845       -6.5633897223
 C         4.2235178869       -2.3439871729       -9.1212267711
 C        10.6388847300       -1.3979995814      -11.2634995094
 C        11.3872433139       -3.5715172892      -12.2874934588
 C        14.6716882943       -6.4604125956       -6.3326834864
 C        13.3826412846       -7.9510011784       -7.9045197332
 C         8.9737227545       -5.5771963853       -2.6094650375
 C         8.0744711078       -3.8182667298       -4.2761812578
 H        10.9066162764       -3.1757270459       -2.1812616706
 H        12.3245674119       -3.3024731620       -3.0159000711
 H        11.6223267558       -4.6958131018       -2.2518589098
 H         9.1127909564       -7.9775372112       -4.7058680170
 H        10.5994624117       -7.2032867514       -3.9397111288
 H        10.6083843860       -7.3104135210       -7.0325200992
 H        11.1488469444       -8.7537692835       -5.9638437563
 H        14.4811840256       -4.8165420129       -8.5049496236
 H        13.5780890546       -3.5963093332       -7.6145347040
 H        12.7940682499       -4.8834903755      -10.3692393038
 H        13.5620293808       -3.2892892217      -10.2949627689
 H         7.8289144001       -1.7331490204      -10.8010618938
 H         8.7397233374       -2.1972505308       -9.2962133135
 H         7.4617183467       -4.5291181317       -9.5997613534
 H         6.2317969000       -3.4425440006      -10.3999127744
 H         3.1042617094       -4.2044868677       -6.4841517646
 H         3.5779603664       -5.9205782147       -6.8054824489
 H         2.4887311075       -5.0704191025       -9.1194285800
 H         1.5028885073       -4.1150825659       -8.0028430615
 H        -2.3116631218       -6.5760337047      -10.1398760215
 H        -1.0255798200       -6.5659090568      -11.4306266244
 H        -1.3397146353       -4.2604029040      -11.8129270997
 H        -2.4293781629       -3.9434203883      -10.3903489834
 H        -6.3164147829       -3.8313959320      -14.9376736515
 H        -5.7723870669       -3.3095146972      -13.5103850645
 H        -7.1656917709       -5.0532601946      -12.3545818639
 H        -7.6228297312       -5.6351734511      -13.8678722990
 H       -11.1628858110       -1.8819942462      -11.3437871958
 H        -9.8709387741       -1.2945829294      -12.3493395904
 H        -8.4219096509       -0.9270979995      -10.3094093073
 H        -9.7552202326       -1.6811919324       -9.3236215278
 H        -7.3814747883        0.8823633917      -11.3314586568
 H        -6.4166146565        2.3357452817      -10.7909488094
 H        -6.4594950254        2.8759097841      -13.1926396191
 H        -8.0135709297        3.1951824616      -12.8946328915
 H       -10.8322046755        1.6556636338      -16.4935156142
 H        -9.9071610834        3.1712199694      -16.6288693008
 H       -12.5264503488        2.8915308103      -15.0856182444
 H       -12.3289085109        3.5277808476      -16.8030639832
 H       -15.1615322043        3.8130940063      -13.6524992249
 H       -15.1813090246        5.6184912568      -12.9782345156
 H       -15.7485602468        4.4740483680      -10.9869827621
 H       -14.0356916718        4.3684299587      -10.9976776179
 H       -18.3453637886        3.2017440488       -8.8963507153
 H       -17.0294877048        4.3439035916       -8.9498984917
 H       -16.3127287808        3.2994784513       -6.6890623028
 H       -17.8625714899        2.3438859317       -6.8416636036
 H       -19.6200087863        6.7012805102       -7.1657698587
 H       -19.0128055811        6.9704306209       -8.8512029525
 H       -18.8407046516        8.1918529107       -7.4257301755
 H       -17.5826168049        7.4294327386       -4.7626930168
 H       -18.0121714837        5.8642065775       -3.9903668501
 H       -19.0244690092        6.4512344092       -5.3759387244
 H       -15.1097099501        5.2769611395       -6.4591321468
 H       -15.8014673102        4.5698840029       -4.8785379790
 H       -15.4164189017        6.2432191544       -5.0836187696
 H       -18.6614371537        2.2982099463      -10.8820347427
 H       -17.9993138225        2.1200527297      -12.5598368894
 H       -17.7388616098        3.6565838339      -11.7239623827
 H       -17.3580938335       -0.0791426064      -10.6442760875
 H       -15.7015525512       -0.0284055307      -10.2001049162
 H       -16.2126398297        0.1027640737      -11.9674308539
 H       -12.9966120576        7.7256575670      -15.0488599241
 H       -11.7269051543        7.0863983147      -13.9438377239
 H       -13.3163211128        7.2713487522      -13.3503747608
 H       -14.6790113716        4.5030523441      -15.5157321462
 H       -13.8376566921        5.7931118260      -16.5575641601
 H       -15.0435298738        6.1246049958      -15.4037407574
 H        -6.7278269673        2.5855393710      -15.8053875196
 H        -8.1226320119        3.5131682569      -15.3329495061
 H        -7.9700542431        2.4925919187      -16.8706307269
 H        -7.5030128714       -0.0211827069      -16.3376328315
 H        -9.0262910785        0.4933387358      -17.0369337610
 H        -8.8587682173       -0.7170014554      -15.5714888626
 H       -10.9853886072        2.7457653017       -9.1098214987
 H        -9.5979129586        2.8660673372       -7.9350691702
 H       -10.6689442568        1.4399350925       -7.8779843050
 H        -8.5475370084        0.4115357221       -7.7128172187
 H        -7.4245252160        1.6046859134       -8.1075264694
 H        -7.3876588422        0.2514070083       -9.1072646237
 H       -11.5379166722       -3.2532273982      -13.7059518588
 H       -11.7864354056       -4.9173190323      -13.0699180064
 H       -10.8882643625       -4.6500233423      -14.5074438325
 H       -10.5565946856       -6.0307262380      -11.3902970346
 H        -8.8347209857       -5.8958561129      -11.3769568622
 H        -9.7273146102       -6.4401677304      -12.8769208414
 H        -2.0835931315       -3.3944984374      -14.2000831476
 H        -3.4728654402       -2.7975524441      -13.3542209020
 H        -3.5276829782       -3.1269207019      -15.1032846720
 H        -1.5935150436       -5.7389316072      -14.2018376496
 H        -2.8964878444       -6.3331493520      -14.9841426614
 H        -2.5708333965       -6.9088153769      -13.3382674539
 H         1.0597462626       -7.6772002699      -10.5276341701
 H        -0.2105371375       -8.6372503182       -9.8587495023
 H         1.3689151361       -8.5326527706       -9.0978895720
 H        -0.8850342448       -6.5962691027       -6.7934185019
 H        -0.8464895207       -8.2360377529       -7.2187310145
 H        -1.9085957066       -7.2307815522       -8.0549862594
 H         4.9278033827       -2.6574921243       -5.6168180040
 H         3.8254077352       -1.8312762298       -6.5316004281
 H         5.4387699723       -1.1918551872       -6.6613806349
 H         3.2172108381       -2.0418122277       -8.7646449185
 H         4.0901820230       -2.9496088036      -10.0136883119
 H         4.6881744786       -1.4166271998       -9.4561976769
 H        10.1313406437       -1.1492571365      -12.2202748042
 H        11.6268670597       -0.8560260839      -11.2990011681
 H         9.9648540822       -0.9600206218      -10.5280626715
 H        10.8046210297       -3.3406037976      -13.2212567960
 H        11.5225274735       -4.6613121125      -12.2576824139
 H        12.4202079543       -3.2390924195      -12.4686489738
 H        15.3695756126       -7.1921663357       -6.6271866928
 H        14.6028389740       -6.5614871446       -5.2350662051
 H        15.0549223755       -5.4523458285       -6.6319057443
 H        13.7753355868       -8.8445381231       -7.4701489713
 H        14.0133105157       -7.7301910438       -8.7774856982
 H        12.3872063580       -8.0880355648       -8.2832275682
 H         8.7285626609       -4.9173026490       -1.7858505463
 H         9.8770809438       -6.0774694819       -2.2005435958
 H         8.2235242315       -6.3487352117       -2.7808060867
 H         7.1623171722       -4.2928752377       -3.9931964046
 H         7.9845541523       -3.8437811386       -5.3542811700
 H         8.2276695472       -2.8059659234       -3.8184052096
 Na        9.6991653790       -3.7344600703       -7.0683489977
 Na      -11.6458959911        2.3725434541      -11.8713053528
