232

 C        11.4283416935       -3.9289439860       -2.7477106253
 C        10.5271794831       -3.9573284037       -3.9272902009
 O        10.7974691620       -3.3103788813       -4.9807998689
 C         9.2151322673       -4.9360846931       -3.9583773756
 C         9.3000711762       -5.9374744009       -5.0527163478
 O         8.8553887360       -5.5851936918       -6.1683483562
 C         9.8824952662       -7.3408974290       -4.9429989014
 C        10.8819701503       -7.5793873763       -5.9953140397
 C        12.2097958640       -6.8783906747       -5.8446441800
 O        12.4705675837       -6.2212148448       -4.8832938614
 C        13.2625985500       -6.7328704921       -6.9806346449
 C        12.6303680008       -5.4589116007       -7.7179860901
 O        11.4265716073       -5.4466308216       -7.8284302181
 C        13.3719549625       -4.3940555204       -8.3761405786
 C        12.7302724099       -4.1009604675       -9.7439074241
 C        11.5384814785       -3.1965904963       -9.6946681405
 O        11.0527695570       -2.7125081740       -8.6691273609
 C        10.8234644970       -2.8261904627      -11.0226905643
 C         9.2505046735       -3.4718693972      -10.9522674129
 O         8.8452360883       -4.4481058390      -11.4775093893
 C         8.2148830946       -2.5440035135      -10.2281715884
 C         7.0870620681       -3.3506036550       -9.7419971608
 C         6.6242542930       -3.0383317862       -8.3469417795
 O         7.4241566997       -2.8904028639       -7.3976139382
 C         5.1748839199       -2.9472304326       -7.9723633623
 C         4.5722276314       -4.4898144726       -7.9740138649
 O         5.0086232603       -5.2291372407       -8.7838378499
 C         3.3178090315       -4.8243407305       -7.1300039223
 C         2.1854884140       -5.0520637727       -8.1771501965
 C         1.4979378586       -6.3420672838       -7.9140234455
 O         1.9766432454       -7.1869678978       -7.1699512456
 C         0.1659394777       -6.8046741021       -8.7100944132
 C        -0.5946886220       -5.6569373104       -9.4973129250
 O        -0.2910599298       -4.5019495485       -9.1541960063
 C        -1.6400295051       -5.9950794237      -10.5199902934
 C        -2.2447905070       -4.7480689011      -11.2917924810
 C        -3.5222192973       -5.0759881293      -11.9618011379
 O        -4.5078554866       -5.4360954118      -11.3329330141
 C        -3.5913829302       -4.9055340391      -13.5171164792
 C        -5.0386226271       -5.1700457726      -14.1074908340
 O        -5.2849744793       -6.1669565926      -14.7817389780
 C        -6.1157856905       -4.0682258948      -13.8612203819
 C        -7.3541732302       -4.7105710485      -13.1985592294
 C        -8.6061255747       -3.7659303505      -13.2740976428
 O        -8.5657246922       -2.6990657006      -13.8567640763
 C        -9.8293345782       -4.2370489885      -12.4846755885
 C        -9.9426605017       -3.3721416934      -11.1454113835
 O        -9.5515491159       -3.8398340437      -10.1221182727
 C       -10.2391101919       -1.8859727721      -11.3074619762
 C        -9.4294381515       -1.1131118094      -10.2818667030
 C        -9.9912876256        0.3558998543      -10.0999777618
 O       -11.1832999591        0.6154750557      -10.4060397410
 C        -9.1519926605        1.5239495435       -9.4245553507
 C        -8.7865014161        2.3282879395      -10.7260952673
 O        -9.5100387104        3.1582200287      -11.3098893652
 C        -7.3426444662        2.0809280207      -11.3602468714
 C        -7.2512570023        2.3298878331      -12.8659677467
 C        -7.7201128600        1.1576727490      -13.6859108171
 O        -7.3774946207        0.0131934015      -13.4866654409
 C        -8.4933427521        1.5652460349      -15.1026576225
 C        -9.9787315119        1.9540735356      -14.8633628100
 O       -10.3535998923        1.8250361062      -13.6589332845
 C       -10.7987040795        2.6417378387      -16.0421813420
 C       -11.9666609940        3.5367531446      -15.8552213971
 C       -11.6774385221        4.8625789052      -15.1836851949
 O       -10.6319843879        5.4446641135      -15.2751632196
 C       -12.9579852727        5.4457029667      -14.6477666703
 C       -13.3757883814        4.7780191298      -13.3173523049
 O       -12.5056099914        4.4351782610      -12.5304179298
 C       -14.8112400380        4.4114742845      -12.8796257322
 C       -14.9823778609        4.0898547773      -11.3516762153
 C       -15.1449552871        2.5054917209      -11.2707996278
 O       -14.1682886785        1.7690639853      -11.3603175366
 C       -16.4786209643        1.8780880693      -10.7341164383
 C       -16.4393153495        2.1476223161       -9.2020192394
 O       -15.7224119795        1.4646355956       -8.5248075800
 C       -17.4189159045        3.2601246581       -8.6110078716
 C       -17.3138396328        3.1507446773       -7.0217881157
 C       -17.9600578525        4.2988415249       -6.1470855332
 O       -19.0158996907        4.1863611734       -5.6752635860
 C       -17.1695865301        5.6968788703       -6.0641550286
 C       -17.2870294240        6.4624776428       -7.3575770058
 O       -16.3781915305        6.6867868138       -8.1364521720
 C       -18.6080665633        6.9433190418       -7.7511738237
 C       -17.8859507677        6.4792016529       -4.8948028505
 C       -15.6158359599        5.4116217154       -5.6573386839
 C       -17.6231082407        2.5094678228      -11.5155578304
 C       -16.6046136790        0.3580016744      -11.0333092403
 C       -12.7292885140        6.9843600785      -14.3775793288
 C       -14.1141842821        5.3345786994      -15.7643440482
 C        -7.5799236653        2.6305567558      -15.7903600710
 C        -8.4975931606        0.3522151564      -16.0463331625
 C       -10.0652425309        2.4292788780       -8.5078235878
 C        -7.9230996320        1.0594094902       -8.5997441505
 C       -11.0043657127       -4.0521404968      -13.4562810160
 C        -9.7353683675       -5.7474307474      -12.1250683471
 C        -3.1272551343       -3.5677611429      -14.1492098124
 C        -2.6855734717       -5.9244105872      -14.1920687975
 C         0.7530090388       -7.8710374573       -9.6083844130
 C        -0.7214175144       -7.3028858381       -7.4830551313
 C         5.0534958130       -2.1394736105       -6.7142711387
 C         4.1967507505       -2.3378467219       -9.0259602706
 C        10.7176929696       -1.2887294637      -11.1594070346
 C        11.3726929657       -3.4888353040      -12.3224132579
 C        14.6919241736       -6.5217141433       -6.3109930436
 C        13.2443338104       -7.8618066546       -8.1153376135
 C         8.8715338100       -5.4878806902       -2.6034218562
 C         8.0699016489       -3.8906460576       -4.2820907968
 H        11.3569550969       -2.9400677223       -2.3058410664
 H        12.5119564010       -4.0741914660       -2.9725363726
 H        11.0692472263       -4.6450620977       -1.9876764078
 H         9.0387160985       -8.0327430076       -5.1286938211
 H        10.2750269272       -7.3884254128       -3.8997405800
 H        10.4957180075       -7.1658433189       -6.9137129867
 H        11.0322516540       -8.7280523663       -6.0659494643
 H        14.4098342608       -4.6799449936       -8.5463350103
 H        13.3769250478       -3.5221962120       -7.7766622268
 H        12.5279893247       -5.0641879638      -10.3265042419
 H        13.4990165368       -3.6216419163      -10.3662172957
 H         7.7736381891       -1.9158542923      -11.0277994836
 H         8.6621228587       -1.8898169162       -9.3824604377
 H         7.3188900523       -4.4686504323       -9.5421107172
 H         6.2427108538       -3.3063960940      -10.4843383697
 H         2.9710017368       -3.9493102967       -6.5334725485
 H         3.3187294512       -5.7415234415       -6.5062078725
 H         2.5593422045       -4.8795143850       -9.2001120008
 H         1.4518799818       -4.2900200872       -7.9320683313
 H        -2.5553216951       -6.4071132688      -10.0981745325
 H        -1.1652435891       -6.6059313581      -11.3084730163
 H        -1.5603437833       -4.2628032578      -11.9416608015
 H        -2.6433410301       -3.9366680489      -10.5723759210
 H        -6.4009729874       -3.6209205921      -14.7884918452
 H        -5.7062324913       -3.2352725948      -13.3705972732
 H        -7.2236134927       -5.0244817572      -12.1012557075
 H        -7.4811112919       -5.7293622483      -13.6596630886
 H       -11.3191497786       -1.4926178608      -11.3288382798
 H        -9.8797429463       -1.5178027760      -12.2388678559
 H        -8.3734883803       -1.0721319666      -10.6077562286
 H        -9.4868957786       -1.6356729653       -9.3044892317
 H        -7.0368288500        1.1149973968      -11.1846835575
 H        -6.7226756775        2.8627993630      -10.9413535839
 H        -6.2054193115        2.5449604478      -13.1670601843
 H        -7.6516679728        3.2578505500      -13.1598427511
 H       -11.1144129928        1.8620319796      -16.7136855878
 H        -9.9556105398        3.2781245200      -16.5511021164
 H       -12.7548576888        2.9925544211      -15.2534473772
 H       -12.3644875098        3.8594346312      -16.8349983473
 H       -14.9979301426        3.4334600166      -13.4191063077
 H       -15.4687006145        5.2712681186      -13.1468366709
 H       -15.8486939874        4.6358667664      -10.9355784395
 H       -14.0919209563        4.4522362082      -10.7776296323
 H       -18.4509450232        3.0191916811       -8.9403303308
 H       -17.1862726476        4.2662725852       -9.0221331232
 H       -16.2180799373        3.2044420514       -6.8710804130
 H       -17.8625777504        2.2650682949       -6.8388698745
 H       -19.5172466457        6.3300547648       -7.5278546249
 H       -18.5962065684        7.2925152785       -8.8070187936
 H       -18.7727793032        7.7691523140       -7.0448908141
 H       -17.4113225225        7.4284301097       -4.8365972367
 H       -17.5965315051        5.9341749055       -4.0266367141
 H       -19.0085669575        6.4597451604       -5.1118115114
 H       -15.0130387799        5.0643153136       -6.5744383947
 H       -15.6505125093        4.7143096399       -4.8934707191
 H       -15.1522325709        6.2952178590       -5.3012403227
 H       -18.5757828851        2.1642969317      -11.0735993512
 H       -17.6135537554        2.1324993218      -12.5675055279
 H       -17.6797497981        3.6064990300      -11.5916184444
 H       -17.5435440581       -0.0519985273      -10.6858719447
 H       -15.8518667167       -0.2874278135      -10.4967575619
 H       -16.5717081650        0.2860238929      -12.1213370778
 H       -12.7759494812        7.4171571904      -15.3604343426
 H       -11.7959928374        7.1413196438      -13.8624247559
 H       -13.4841657802        7.4161715400      -13.7434281220
 H       -14.5041206649        4.3912014464      -15.9872187467
 H       -13.8117605816        5.9780934872      -16.5928730668
 H       -14.9626676867        5.8471775325      -15.3618352601
 H        -6.5478233328        2.2422402121      -15.7524569628
 H        -7.6659447209        3.5592313096      -15.2494240894
 H        -7.8270362685        2.5394264971      -16.9148664116
 H        -7.4449367388        0.0916324107      -16.3437317412
 H        -9.0768163256        0.5691337275      -16.9635550183
 H        -8.8199676816       -0.5496659977      -15.4959786618
 H       -10.6287020331        3.0161678839       -9.2636102175
 H        -9.3857177163        3.0393553102       -8.0235754067
 H       -10.7669317272        1.8626197130       -7.7942135878
 H        -8.0071697312        0.8527027192       -7.5169909024
 H        -7.2415595374        1.8653079069       -8.6080465903
 H        -7.2533499980        0.3256682496       -9.0852112102
 H       -11.0743597210       -3.0091960268      -13.7747426180
 H       -11.9091301814       -4.4971721006      -13.0027890352
 H       -10.7681451382       -4.5465640790      -14.4031391072
 H       -10.6890547215       -6.0525404293      -11.6845445469
 H        -9.0454637623       -5.9297158821      -11.3049673181
 H        -9.5915933043       -6.4557485406      -13.0306249767
 H        -2.1882948611       -3.3184180030      -13.5791318150
 H        -3.8065073588       -2.7534010947      -13.8520240937
 H        -2.8493258024       -3.4221693608      -15.2040490966
 H        -1.6607710080       -5.6938026581      -14.3409864761
 H        -3.0727016453       -6.1748230432      -15.2179813010
 H        -2.7478546583       -6.8527200123      -13.5624382367
 H         1.1713170584       -7.4937678115      -10.5906766352
 H        -0.0819102660       -8.4479559948       -9.9043123171
 H         1.4980589230       -8.4747976310       -9.2414472872
 H        -0.7149994472       -6.4786562063       -6.7715634731
 H        -0.3509544762       -8.1937046458       -6.9606712875
 H        -1.7799923514       -7.5859569186       -7.6960821830
 H         5.1519177772       -2.6711455813       -5.8140049712
 H         3.9760411043       -1.7950965983       -6.7047899632
 H         5.6615883790       -1.3144859103       -6.7599797542
 H         3.2311125587       -2.4556602966       -8.6472466761
 H         4.2307863754       -2.8428699059      -10.0477965424
 H         4.3753202963       -1.3114946556       -9.1788224391
 H         9.7824148978       -0.9944051168      -11.7566831504
 H        11.5479092155       -0.7625778998      -11.5900497461
 H        10.4098047939       -0.8920324537      -10.1345204309
 H        10.7501263808       -3.3107681186      -13.2254583533
 H        11.3677482194       -4.6023404155      -12.1895122984
 H        12.4426781111       -3.3280990239      -12.6329780050
 H        15.3604529056       -7.2514297169       -6.7861169574
 H        14.6964930387       -6.6892311419       -5.2434051587
 H        15.0648151778       -5.4995038070       -6.5742969973
 H        13.8740599955       -8.7347865039       -7.8922351988
 H        13.5645719073       -7.5105024165       -9.1089456971
 H        12.1615377013       -8.1015255159       -8.2792090725
 H         9.0077079013       -4.7313739625       -1.7959921506
 H         9.5881223442       -6.2057093911       -2.3023282477
 H         7.8943137663       -5.9381693130       -2.5717017173
 H         7.0508719954       -4.2600587584       -4.1642773829
 H         8.1965461753       -3.6815182275       -5.3309489474
 H         8.2912704840       -3.0148883065       -3.6784587916
 Na        9.6757930949       -3.8201952913       -7.1494595827
 Na      -11.7973710279        2.3486387155      -11.8454451809
