232

 C        11.5201200513       -4.2674622293       -2.9341465192
 C        10.4586515319       -4.1970802884       -3.9283887250
 O        10.6370366627       -3.5717458016       -4.9117104366
 C         9.0172140658       -4.8511883849       -3.8056304539
 C         9.0939887359       -5.9018172830       -5.0200798774
 O         8.7918976835       -5.7206292511       -6.1456088032
 C         9.7506717200       -7.3365071347       -4.7351653504
 C        10.6056537105       -7.7067765544       -5.9366214590
 C        12.0543005487       -6.9302711645       -5.8301129269
 O        12.5545940621       -6.7015918307       -4.7324206834
 C        12.8156719728       -6.7517964007       -7.1973662366
 C        12.2016121390       -5.5604210655       -8.0165607467
 O        11.0360592736       -5.1327741913       -7.9272085631
 C        13.2217153240       -4.7899224868       -8.9036369117
 C        12.6969778797       -4.0130160086      -10.1568192660
 C        11.6830444839       -2.8710929303      -10.0087607507
 O        11.4372983834       -2.3885390024       -8.9057949100
 C        10.8979801863       -2.4572285974      -11.4261849844
 C         9.5642068663       -3.2617483788      -11.0776781477
 O         9.5497050682       -4.4792542153      -11.1583583392
 C         8.4597507362       -2.4078627505      -10.3806884635
 C         7.2276632768       -3.2226744316       -9.9077122398
 C         6.7551627311       -3.0572887092       -8.4551325667
 O         7.6066953620       -2.9662410640       -7.5638306337
 C         5.2628567382       -2.8623096739       -7.9554124052
 C         4.5441755230       -4.4138120914       -7.7991900024
 O         5.3759189055       -5.2600521955       -7.9566188791
 C         3.1891214807       -4.4840300823       -7.2016403845
 C         1.9611022548       -4.7498287740       -8.1793775398
 C         1.4543602385       -6.3046980950       -8.1351643847
 O         2.0522132730       -7.1247350646       -7.5022574755
 C         0.1445044790       -6.8344534781       -8.7952253202
 C        -0.9301144475       -5.7699425831       -9.2391119439
 O        -0.8176804403       -4.6012157683       -8.9964416963
 C        -2.1175610668       -6.1792551285      -10.1411630989
 C        -2.0217233835       -5.2941614243      -11.4926878087
 C        -3.3810236447       -5.3294824152      -12.0921130650
 O        -4.3826240349       -5.6937874150      -11.4850677697
 C        -3.5232868490       -4.8663498995      -13.6125833514
 C        -5.0627947392       -4.7829822655      -14.0980171737
 O        -5.5093520081       -5.4348777100      -14.9882539788
 C        -6.0370652662       -3.9147164788      -13.2037937328
 C        -7.4264071677       -4.6883180715      -12.8262231148
 C        -8.5493949917       -3.7619499130      -12.9925129883
 O        -8.4623465252       -2.6667685873      -13.5205733097
 C        -9.9305613546       -4.0904822178      -12.2252753687
 C        -9.7818635120       -3.3598848748      -10.8681187525
 O        -9.3304038822       -3.9230351628       -9.8657470648
 C       -10.3287495927       -1.9678555571      -10.7715196822
 C        -9.3238005345       -1.0612264087      -10.0843276484
 C        -9.8717443030        0.3892869897      -10.1288502979
 O       -10.9502460126        0.5312612751      -10.5807486239
 C        -8.9024117471        1.6621871318       -9.7262789098
 C        -8.5579215713        2.4389271832      -10.9762230118
 O        -9.4473662903        3.0984668292      -11.4684784910
 C        -7.1598904958        2.8107150508      -11.4413122107
 C        -7.1082685201        2.8935507016      -13.0304451693
 C        -7.8096750717        1.6552068421      -13.6546078872
 O        -8.1372160548        0.8151488245      -12.7982964975
 C        -8.3228663766        1.6404596768      -15.0854486972
 C        -9.9473465058        1.9544828998      -14.9029565566
 O       -10.4382177143        1.9542148348      -13.8389106451
 C       -10.7217087904        2.3398393653      -16.1947617633
 C       -12.0611353688        3.0882083946      -15.8788903405
 C       -11.9450205247        4.5592643649      -15.3199061322
 O       -10.9200130618        5.1391802070      -15.4802706754
 C       -13.3406333627        5.3420129521      -14.6898820139
 C       -13.5795512544        4.6452437226      -13.3031265865
 O       -12.6259738288        4.1575883902      -12.7382608586
 C       -15.0299459524        4.4421309966      -12.7843534696
 C       -15.2217088414        4.0806144710      -11.2801826749
 C       -15.3436812302        2.4737804003      -11.1646765884
 O       -14.3863149672        1.8212861965      -11.3980015656
 C       -16.6976688663        1.8417581327      -10.7551841069
 C       -16.6254857654        1.7332272898       -9.1904627339
 O       -16.3028857559        0.7273118167       -8.5945855542
 C       -17.0619110703        2.9678636493       -8.3764243743
 C       -17.0097116151        2.7835159054       -6.8341129759
 C       -17.4960991012        4.0674734641       -6.0914755552
 O       -18.6771590688        4.1119780438       -5.6671834537
 C       -16.6047202280        5.3962730098       -5.9678436292
 C       -16.9343137026        6.2398971373       -7.3205426952
 O       -16.0189372501        6.7396145291       -7.9813288027
 C       -18.5034982173        6.4504565296       -7.6075622664
 C       -17.1065607192        6.2648387988       -4.6873017208
 C       -15.0963706889        5.1393825233       -5.9106681700
 C       -17.8306527121        2.7561771823      -11.1696130505
 C       -16.9052589428        0.4070797054      -11.3170496124
 C       -12.9678094118        6.8568722932      -14.4539253654
 C       -14.4018792534        5.2263297966      -15.7922613240
 C        -7.5623842784        2.5668172889      -16.0598632485
 C        -8.2841505121        0.1649197364      -15.5610074583
 C        -9.9095521409        2.5036235243       -8.8003993734
 C        -7.6989030775        1.2343809052       -8.8544918126
 C       -11.0735784530       -3.4689781883      -13.0349656772
 C       -10.0921866894       -5.6213250798      -12.0517132015
 C        -2.9097390070       -3.4704434538      -13.7579755294
 C        -2.7766555975       -6.0984712975      -14.4332379730
 C         0.7191691913       -7.6178467170      -10.1366634111
 C        -0.6258249088       -7.8268701454       -7.8868915279
 C         5.3868409730       -2.1696568447       -6.4716338966
 C         4.4286921167       -1.9665826033       -8.9282067912
 C        10.7150549090       -0.9024939105      -11.4146956354
 C        11.6502721452       -2.9145672485      -12.6757021724
 C        14.3612837175       -6.6373178765       -6.7894042368
 C        12.6184169227       -8.0568692773       -7.9709573613
 C         8.7649094114       -5.6055693888       -2.4812530355
 C         7.8355223050       -3.9570444713       -4.1545671986
 H        12.3526144745       -4.8114566039       -3.4171985709
 H        11.2736733546       -4.6260287695       -1.9493867402
 H        11.9100671633       -3.2542716801       -2.8885680000
 H         8.8732855309       -8.0333413970       -4.5066879187
 H        10.3180872870       -7.5023765574       -3.8504679413
 H        10.2294804419       -7.4646558281       -6.9696273660
 H        10.8258073936       -8.7903527047       -5.8266012858
 H        14.1096955853       -5.2941023956       -9.0886838239
 H        13.5360300062       -3.9950137632       -8.1957622550
 H        12.3194913341       -4.6535260323      -10.9104414009
 H        13.5213243621       -3.6229496903      -10.8343328266
 H         8.1778830972       -1.6140274471      -11.1531833059
 H         9.0087487294       -1.9171374966       -9.4970017552
 H         7.5073315217       -4.2885293993      -10.1320704326
 H         6.2714784661       -2.9405156443      -10.4949919021
 H         2.9949434644       -3.4627967734       -6.7840936255
 H         3.1972315825       -5.2824654243       -6.4179153185
 H         2.2190157488       -4.5060907227       -9.2391731207
 H         1.2174784708       -4.0638506736       -7.7975968445
 H        -3.0487981362       -5.9647700796       -9.4414133899
 H        -2.1158704330       -7.2045968048      -10.4327190511
 H        -1.1884391584       -5.8328883517      -12.0759965825
 H        -1.7422637965       -4.3320521662      -11.3129271321
 H        -6.3066558414       -3.1172271516      -13.8542158756
 H        -5.5478988453       -3.5140147520      -12.3156055615
 H        -7.5647274199       -5.1338403592      -11.7950848345
 H        -7.6641103016       -5.5838362098      -13.4788175422
 H       -11.3849742942       -1.8765199301      -10.4180579923
 H       -10.4659258903       -1.4613352982      -11.7780369288
 H        -8.3834870912       -1.2012464325      -10.7008795811
 H        -9.1266137607       -1.3191933087       -9.0546178337
 H        -6.4000340493        2.0725339989      -11.1330559183
 H        -6.9983719080        3.7426657471      -11.0528368468
 H        -6.1120761483        3.0825456262      -13.3267392631
 H        -7.7503063170        3.7569013994      -13.3216838486
 H       -10.9909548402        1.4736353020      -16.9478769587
 H       -10.1201082035        3.0678486862      -16.6670384834
 H       -12.7631764541        2.4773266391      -15.2161102005
 H       -12.5302556145        3.1428549208      -16.8794326363
 H       -15.3061798291        3.4568321877      -13.3685008797
 H       -15.7397021654        5.1489288139      -13.1773950762
 H       -16.0295052190        4.7130425169      -10.7618550158
 H       -14.2945804692        4.2753923141      -10.7345659417
 H       -18.1637760316        2.9111384506       -8.5921100068
 H       -16.5749883701        3.8566149475       -8.7313948236
 H       -15.9608676908        2.5196160397       -6.5119170736
 H       -17.6981368028        1.8740701603       -6.6407078232
 H       -18.7144410586        6.4665154260       -8.7158436163
 H       -18.9843420415        7.3920437190       -7.2756893369
 H       -19.0401867703        5.5479883053       -7.2113137416
 H       -16.3693790215        7.1198983127       -4.6720158481
 H       -16.9593293203        5.5949607896       -3.8228127895
 H       -18.0958024778        6.5415968995       -4.8464373159
 H       -14.7512544137        4.9775021493       -6.8402108619
 H       -14.8496877063        4.2516752686       -5.2974348186
 H       -14.7006049480        6.0838284765       -5.5060681934
 H       -18.7952554409        2.6341790156      -10.6481328127
 H       -18.0921687283        2.5944879133      -12.2421738527
 H       -17.6982532520        3.8701569924      -11.0297631544
 H       -17.9764041919        0.0956637675      -11.1274964109
 H       -16.1627392157       -0.2682315323      -10.9582473511
 H       -16.7603222955        0.4763279410      -12.4270361392
 H       -11.9228759397        6.9550001738      -14.7173374125
 H       -13.2271603436        7.1818634019      -13.4648007990
 H       -13.4164472597        7.4340242504      -15.2147269018
 H       -14.4618352174        4.1790465091      -16.1769948781
 H       -14.1796689798        5.7139037672      -16.6952136079
 H       -15.3266438493        5.5505997467      -15.3686536982
 H        -6.4751152998        2.3912189389      -15.8335075163
 H        -7.9516629348        3.6676230090      -15.8689108537
 H        -7.9146146915        2.4280658777      -17.0913468796
 H        -7.2152869113       -0.1250350242      -15.6947375394
 H        -8.7712307956        0.0043873046      -16.5623057653
 H        -8.8062579118       -0.5056283705      -14.8686724978
 H       -10.8541425084        2.4948531850       -9.3119805615
 H        -9.5349214287        3.5828433599       -8.5239152440
 H       -10.0546828078        1.9059543351       -7.9270733885
 H        -7.9025443000        0.6139352081       -8.0035874311
 H        -7.2689564299        2.1759270220       -8.3403583208
 H        -6.8051102424        0.8041522327       -9.2891603218
 H       -10.8086851215       -2.4586020633      -13.2992900202
 H       -12.0689612050       -3.4203261257      -12.5339637011
 H       -11.0869431822       -4.0236325959      -13.9697403071
 H       -10.9634036903       -5.8683347489      -11.3512946345
 H        -9.1847056818       -6.1088582603      -11.6031517965
 H       -10.3390187922       -6.0363022397      -13.0024380211
 H        -3.5155490525       -2.6675927430      -14.1462609489
 H        -2.0124958941       -3.6079513739      -14.4256473488
 H        -2.4500822936       -3.1380752801      -12.8107153592
 H        -1.9549369964       -6.6080975564      -13.8570827794
 H        -2.3508396556       -5.6955407195      -15.3421541716
 H        -3.4906891580       -6.7910550444      -14.7898265145
 H         1.1274753923       -6.9630695993      -10.7883715766
 H         0.0277947864       -8.3164412050      -10.5820487371
 H         1.5630523004       -8.3056502021       -9.8901314001
 H        -0.8332682480       -7.4622880296       -6.8733198041
 H         0.0679593228       -8.6710101409       -7.8563939476
 H        -1.5727706209       -8.1781361742       -8.2073987754
 H         5.8544889023       -2.8743050907       -5.7987142215
 H         4.4484787393       -1.9295850961       -6.1606707957
 H         6.0666405359       -1.3230990377       -6.3868528109
 H         3.5731885686       -1.5176041187       -8.3996491717
 H         4.0169114345       -2.6017787595       -9.6112030724
 H         5.0190707727       -1.1900417816       -9.4302692004
 H        10.3917916316       -0.6020154664      -12.4349822945
 H        11.7947061342       -0.5164562374      -11.2830307282
 H        10.0016319573       -0.3799422289      -10.7653010095
 H        11.1051463179       -2.6260358709      -13.5903510537
 H        11.6016451448       -4.0287576626      -12.7914190347
 H        12.6401192601       -2.4319242788      -12.8110850588
 H        14.9427090068       -6.1377544008       -7.5872095164
 H        14.7450058124       -7.6303283533       -6.5038947598
 H        14.3818122401       -6.1332043513       -5.8687068748
 H        12.8315058476       -8.8948350463       -7.3015733639
 H        13.3179372478       -7.9891009090       -8.7975315354
 H        11.6416987090       -8.1157770606       -8.4335950111
 H         8.5150826828       -5.0184652888       -1.6563903668
 H         9.5305980169       -6.3385793361       -2.2449790844
 H         7.8107317912       -6.1437033213       -2.5260001127
 H         7.1010551739       -4.5406740982       -4.7231918532
 H         8.1419918324       -2.9846191655       -4.5241716900
 H         7.3223953052       -3.8273350582       -3.2306934801
 Na        9.7506813782       -3.3197695072       -7.1004157868
 Na      -11.7242862609        2.4132467165      -11.8724697134
