232

 C        11.5159489161       -4.3217476247       -2.8379038959
 C        10.4558363722       -4.1193984012       -3.9325977584
 O        10.6235912003       -3.4319778805       -4.9364877631
 C         8.9982945523       -4.9731288016       -3.8396107183
 C         9.1349377772       -6.0221781469       -4.9998739277
 O         8.7552853793       -5.5695840038       -6.1157182861
 C         9.7036032791       -7.4102818859       -4.7764122383
 C        10.6084431411       -7.7960024846       -5.9042640513
 C        11.9425508643       -7.0895496884       -5.8590831986
 O        12.3255457408       -6.7119503502       -4.7798974239
 C        12.7686359758       -6.8082163453       -7.2035268834
 C        12.2850634122       -5.4849142606       -8.0151091200
 O        11.0945668402       -5.3080458933       -7.9407465809
 C        13.2045270043       -4.7091445504       -8.9927850751
 C        12.5926312552       -4.0956781186      -10.2213209602
 C        11.6517475156       -2.7693283880      -10.0659128617
 O        11.4137931096       -2.2603176180       -8.9879647373
 C        10.9680833749       -2.3664949592      -11.3400548166
 C         9.5135873717       -3.2034543035      -10.9764565965
 O         9.5055234838       -4.3618038949      -11.1921840852
 C         8.4228783129       -2.4469482066      -10.2676290247
 C         7.1564354344       -3.3264732583       -9.9319181348
 C         6.8383685438       -2.9670607266       -8.4279811816
 O         7.6765389777       -2.8404647167       -7.6121120168
 C         5.3102657277       -2.9536346746       -7.9120352148
 C         4.6787171578       -4.3198291120       -7.6620506208
 O         5.3088033942       -5.2976184621       -8.0029257148
 C         3.1415507901       -4.4155630977       -7.2405581947
 C         2.0373210465       -4.8088534511       -8.2347019745
 C         1.5681503633       -6.2674695754       -8.0635129692
 O         2.1960616637       -6.9830954838       -7.2965454872
 C         0.2234597267       -6.7964219596       -8.9029106343
 C        -0.8970068727       -5.7019770611       -9.2467515012
 O        -0.8781036421       -4.5203403326       -8.9201137368
 C        -2.0571802304       -6.2198773697      -10.1430090482
 C        -1.9785947901       -5.5340097332      -11.5049139500
 C        -3.3979373233       -5.4224077408      -12.1530993409
 O        -4.4013048108       -5.8055778010      -11.5325613819
 C        -3.5392680910       -4.8909563965      -13.6050989508
 C        -5.1048182696       -4.7916594887      -13.9605016040
 O        -5.5877662429       -5.2886230351      -14.9923344400
 C        -6.0461106217       -3.8691470279      -13.1838676216
 C        -7.3353909452       -4.6383858917      -12.9127286980
 C        -8.5045888851       -3.6953563223      -12.9293931343
 O        -8.4535943208       -2.6123500335      -13.5327705368
 C        -9.8960715896       -4.0986001735      -12.2788807762
 C        -9.8202206741       -3.3994539434      -10.7655291200
 O        -9.2090720308       -3.8868839890       -9.8800591678
 C       -10.3573860682       -2.0063234362      -10.6411597048
 C        -9.3026082996       -1.0757890634      -10.0304301078
 C        -9.7198666093        0.3466444361      -10.1163433901
 O       -10.8325933798        0.6608619056      -10.5394716599
 C        -8.9145223741        1.6569762862       -9.7192387904
 C        -8.6365511499        2.6898830395      -10.9516451647
 O        -9.5824481746        3.2889547837      -11.5017519390
 C        -7.1360846600        3.0016093306      -11.4250039505
 C        -7.1305549949        3.0229514555      -12.9622576888
 C        -8.0487829047        1.8309786469      -13.4936910180
 O        -8.2456669736        0.8526038945      -12.7340610295
 C        -8.4531251695        1.6835681093      -14.9905815238
 C        -9.9450488910        2.0402057135      -14.9740933477
 O       -10.5691705003        1.7999250766      -13.9373056870
 C       -10.8362465765        2.3767631341      -16.1999578499
 C       -12.0738650597        3.1278088901      -15.8342939139
 C       -11.8561795504        4.5742991594      -15.3836998337
 O       -10.8403949498        5.1858396951      -15.5904518126
 C       -13.2643287173        5.1889355501      -14.8002287642
 C       -13.6654186370        4.4995955996      -13.3859459889
 O       -12.7254070124        4.2180897901      -12.6555813381
 C       -15.1255469168        4.4574487394      -12.7791908804
 C       -15.1459449316        4.0151469106      -11.3021517848
 C       -15.3157457581        2.5472604962      -11.0636517854
 O       -14.3453675575        1.8036280857      -11.2940926752
 C       -16.7171777311        1.9021976588      -10.7266269919
 C       -16.6843808001        1.6692282979       -9.1523443201
 O       -16.3254385537        0.6365206469       -8.6926632725
 C       -16.9614311864        3.0358918541       -8.3749664659
 C       -16.8894358239        2.8454572536       -6.8550348066
 C       -17.3884313616        4.0209382492       -6.0754366096
 O       -18.5662680016        4.0260996552       -5.7424412844
 C       -16.5243748916        5.3039610069       -6.0001015012
 C       -16.9393604090        6.0997188514       -7.2262801043
 O       -16.1116404252        6.5580207365       -7.9674528922
 C       -18.3401750277        6.4490437805       -7.5542062519
 C       -16.9485056329        6.1777167214       -4.7263447487
 C       -14.9414795315        5.0653688380       -5.9868108575
 C       -17.9424252781        2.7637175760      -11.1393399848
 C       -16.8611745160        0.4792478329      -11.3623769554
 C       -13.0831841758        6.8159179219      -14.5602991583
 C       -14.4394421891        5.0866139744      -15.7556088947
 C        -7.6969093838        2.5301665962      -16.0662205904
 C        -8.2659019977        0.1518262411      -15.3969474718
 C        -9.7781187487        2.5414824891       -8.8991724238
 C        -7.7038705787        1.2827051524       -8.8475947130
 C       -11.1595651714       -3.6638497796      -13.0333180478
 C       -10.0756170592       -5.6617545430      -12.0808616943
 C        -2.9464076922       -3.4429761353      -13.7078079493
 C        -2.9190874643       -6.0229815495      -14.4686091485
 C         0.4655473029       -7.4679865918      -10.2047281877
 C        -0.3867038199       -7.9792431372       -8.0381589305
 C         5.2885805451       -2.1924819497       -6.5411325480
 C         4.5295492365       -2.0723029052       -8.9461758497
 C        10.7284379573       -0.8599176189      -11.4354664541
 C        11.6264828759       -2.8438601052      -12.5692419706
 C        14.3545053872       -6.6970731611       -6.9514693450
 C        12.6530838623       -8.1191432151       -8.0351991962
 C         8.7501439993       -5.5341234324       -2.4523738117
 C         7.8542504052       -3.9167205792       -4.1572566843
 H        11.9510802948       -5.3298942325       -3.1159525712
 H        11.1075468458       -4.2789522877       -1.7767187012
 H        12.4289747893       -3.6089214638       -2.9607119752
 H         8.8458582456       -8.0802893417       -4.6468503028
 H        10.1363024369       -7.5723882212       -3.7513305806
 H        10.2757083827       -7.4962589681       -6.9340914962
 H        10.7494680717       -8.8402549225       -5.8869698984
 H        13.8894144782       -5.5068893038       -9.3547506708
 H        13.9307156875       -4.0417281309       -8.4904602363
 H        12.0535699645       -4.8617553677      -10.7478769903
 H        13.3019714277       -3.9606948571      -11.0413972398
 H         8.0683038223       -1.5889074885      -10.9457642523
 H         8.9275981167       -2.0167982599       -9.3699556743
 H         7.4146454496       -4.3932727691       -9.9702624979
 H         6.3166207428       -3.1267392880      -10.5800443314
 H         2.8171615978       -3.5161394080       -6.7391317437
 H         3.2636072595       -5.2685518071       -6.5406130820
 H         2.3915239307       -4.8844486221       -9.2635341346
 H         1.2491150263       -4.0206730644       -8.1373503048
 H        -2.9053888902       -5.9255394512       -9.5286865494
 H        -2.1428848877       -7.3661084061      -10.2054477511
 H        -1.2299361502       -6.0984278654      -12.0177049553
 H        -1.5928203891       -4.5375418888      -11.2895590940
 H        -6.2880238028       -2.9467989101      -13.8592126536
 H        -5.5837379679       -3.5856986999      -12.1784104063
 H        -7.3624841701       -5.2030222717      -11.9956787667
 H        -7.5939533426       -5.3981101584      -13.7003653273
 H       -11.2485878171       -1.9455354638      -10.0680781707
 H       -10.7781444080       -1.6111920240      -11.6356485636
 H        -8.3205896159       -1.2642821199      -10.4348500992
 H        -9.3007215642       -1.3119840167       -8.9650891039
 H        -6.4632060125        2.1819658461      -11.1266976463
 H        -6.7867094772        3.9587520772      -10.9741776519
 H        -6.1494287524        2.7855266850      -13.3391485367
 H        -7.4616626330        4.0242284279      -13.2752722532
 H       -11.2004801219        1.3455273778      -16.4404607483
 H       -10.3788957987        2.8398387021      -17.0730723359
 H       -12.6224063736        2.6037305803      -15.0499874593
 H       -12.7436321165        3.1184103696      -16.7433715949
 H       -15.8262968970        3.9544228011      -13.3634566236
 H       -15.4969220200        5.5012400082      -12.8646027236
 H       -15.9890310408        4.4641699953      -10.7631840347
 H       -14.1727397583        4.3898937235      -10.8143608810
 H       -17.9255775160        3.4324549525       -8.6697081855
 H       -16.0906451893        3.6429218686       -8.6697047733
 H       -15.7948425667        2.7249892937       -6.5730068402
 H       -17.4239761024        1.8743628288       -6.5463763669
 H       -18.2748850798        6.8025262512       -8.5254177352
 H       -18.8790209236        7.2418838999       -6.9833659490
 H       -18.9875402133        5.5423537788       -7.5505440864
 H       -16.2732357782        6.9706994377       -4.7062651790
 H       -16.9967298343        5.5446951817       -3.8543949690
 H       -17.9670344980        6.5346720598       -5.0084612083
 H       -14.5820839940        4.7490370519       -6.9691165791
 H       -14.7802754267        4.2074046594       -5.2866860130
 H       -14.4951984824        5.9767639706       -5.6452891249
 H       -18.8393820526        2.6225310351      -10.5160989222
 H       -18.2939645504        2.4439705673      -12.1064912478
 H       -17.8649585536        3.8297507273      -11.2010025274
 H       -17.8607290061        0.1665201862      -11.0967827931
 H       -16.0226814870       -0.2302148066      -11.1418991019
 H       -16.8512247164        0.5958605413      -12.4500150537
 H       -12.0636701916        7.1586754325      -14.4991703327
 H       -13.6843352991        7.0580096212      -13.6893239257
 H       -13.4766344951        7.2761540689      -15.4579966393
 H       -14.5600798781        4.1599715191      -16.2633183585
 H       -14.3111732139        5.6432841273      -16.6795785225
 H       -15.2710807345        5.4215987952      -15.1790096153
 H        -6.6817473648        2.2786348498      -15.8416101018
 H        -7.9687155404        3.6445784108      -15.8751085316
 H        -8.0999057820        2.4046500068      -17.1043918830
 H        -7.3075483253       -0.0115539431      -15.7836417980
 H        -8.9983187932       -0.1058954963      -16.1981683763
 H        -8.5583361191       -0.5601995609      -14.5585295648
 H       -10.5407372173        3.0268059640       -9.5454056940
 H        -9.0165034723        3.2925457264       -8.6133547155
 H       -10.2533565828        2.1093814604       -8.0259423911
 H        -7.8096673441        0.8252926753       -7.8596560188
 H        -7.0547861083        2.1260350705       -8.5989184403
 H        -7.0397371743        0.6527528755       -9.4234846386
 H       -11.1532654287       -2.5397780510      -13.2595674738
 H       -12.0454486879       -3.8226929392      -12.4555325793
 H       -11.1830152529       -4.2638080090      -13.9972308062
 H       -10.9874128781       -5.8025852833      -11.4671851575
 H        -9.2200522816       -6.1392282449      -11.5182491824
 H       -10.2504453105       -6.1801364047      -13.0482159655
 H        -3.5392578243       -2.8549845159      -14.4589066555
 H        -1.8998218002       -3.3301722131      -14.0133144956
 H        -3.0415657656       -2.9577014416      -12.7145214073
 H        -1.9936385669       -6.3979432529      -13.9688600512
 H        -2.7877302827       -5.8481433813      -15.5259404834
 H        -3.7150329477       -6.8717893705      -14.4869215121
 H         0.9570733077       -6.8240468408      -10.9280595761
 H        -0.3253613705       -8.0493291658      -10.6148164866
 H         1.1587254822       -8.2582030804      -10.0083232961
 H        -0.4933547246       -7.6249905325       -6.9873818703
 H         0.2841090837       -8.8585047960       -8.0927841565
 H        -1.4448206113       -8.2815218319       -8.2264540118
 H         5.6340225537       -2.8380896398       -5.7749923289
 H         4.3023980128       -1.8283423873       -6.4028091918
 H         6.0209261666       -1.3933912006       -6.4720064037
 H         3.6687940898       -1.6106047226       -8.4726553547
 H         4.2261534496       -2.7219659284       -9.7548695051
 H         5.1761762284       -1.3102964933       -9.3050631181
 H        10.2995089548       -0.5991294361      -12.4220158817
 H        11.7194191325       -0.3314160102      -11.3029620184
 H        10.0021601720       -0.4703638706      -10.7165650996
 H        11.0201441987       -2.5457965634      -13.4775011664
 H        11.6302075412       -3.9338965407      -12.6562095396
 H        12.5669151503       -2.3226457014      -12.7499372318
 H        14.7304795644       -6.2289192477       -7.8144939593
 H        14.7853372691       -7.6990124282       -6.7785126128
 H        14.5886815580       -6.1614853494       -6.0075178951
 H        13.0269724625       -8.9672064972       -7.4387237776
 H        13.1906974464       -7.9433160742       -9.0345371860
 H        11.5872645489       -8.2692976852       -8.2756062060
 H         8.7044133307       -4.8425318519       -1.6659506990
 H         9.4050709759       -6.3682503338       -2.2298065218
 H         7.7609818169       -5.9321093776       -2.3545515402
 H         6.9804934449       -4.3928823987       -4.5021667883
 H         8.2931613881       -3.1460709105       -4.7618223797
 H         7.5323604980       -3.4467197728       -3.2134932190
 Na        9.7929566917       -3.3688522261       -7.1041881803
 Na      -11.6056659030        2.2715637693      -11.8602790155
