232

 C        11.4729473644       -4.1556265120       -2.7984240082
 C        10.5376234326       -4.1556354744       -4.0217172028
 O        10.8784637820       -3.5340972333       -5.0020851867
 C         9.2121338376       -4.8119923919       -3.9986642201
 C         9.1278362391       -5.7994093582       -5.2690470878
 O         8.8454884909       -5.3911181835       -6.3674853343
 C         9.4322568837       -7.3296120864       -5.0948819152
 C        10.3316204721       -7.8421410007       -6.2573566509
 C        11.7479203790       -7.1159600534       -6.0814381833
 O        12.0483459498       -6.4339499423       -5.1036086343
 C        12.6718725672       -7.0761982990       -7.4141303777
 C        12.0595820588       -5.7848433479       -8.0960472839
 O        10.8671036671       -5.6759105396       -8.2784996898
 C        13.1012256224       -4.7841987646       -8.9036610589
 C        12.3820831215       -4.2185917949      -10.1681628144
 C        11.3726705267       -3.0984182692       -9.9159291511
 O        11.1779709629       -2.7567405621       -8.7482815089
 C        10.7158766012       -2.3103761629      -11.0047034788
 C         9.1879469935       -3.1117871755      -11.0721132256
 O         9.0351480428       -4.0022918910      -11.8788755504
 C         8.2007927718       -2.5424216963      -10.0656874681
 C         7.5891936178       -3.6338570443       -9.2748003107
 C         6.9494097138       -3.0270042976       -8.0060417321
 O         7.5970236300       -2.7262288665       -6.9984298339
 C         5.3733050662       -2.7462331170       -7.9738664352
 C         4.7647107064       -4.1221706067       -8.1046972295
 O         5.3983698016       -5.0825166577       -8.4304815066
 C         3.2195138415       -4.2864878176       -7.6529343856
 C         2.4942344200       -5.1927833087       -8.6939790030
 C         1.4192010501       -6.2072447962       -8.1587271525
 O         1.4925790607       -6.4614012231       -6.9963291805
 C         0.4925927909       -6.8602003698       -9.1837692236
 C        -0.7383132798       -5.7021323211       -9.2998052842
 O        -0.5730958171       -4.7206117054       -8.6275822311
 C        -2.0457430214       -5.9433464061      -10.0640488694
 C        -2.1174339406       -5.9043200832      -11.5211343847
 C        -3.4965991694       -5.7331668246      -12.0044007981
 O        -4.4670294199       -6.2550985912      -11.5501962531
 C        -3.5325314577       -4.8449801348      -13.3308706557
 C        -4.9971586860       -4.7072502311      -13.8795211275
 O        -5.3495701212       -5.1883312638      -14.9010704130
 C        -5.9962622141       -3.8164308497      -13.0955163713
 C        -7.2968047264       -4.5869532265      -12.8113161882
 C        -8.5829593574       -3.6301740195      -12.7904613861
 O        -8.5256492933       -2.5333279926      -13.2550503418
 C        -9.8049277834       -4.0289553277      -11.8855736265
 C        -9.5897463733       -3.1993945251      -10.5806701994
 O        -8.8117670406       -3.5700756031       -9.6721819864
 C       -10.1390269119       -1.7832312128      -10.5661508928
 C        -9.0001096393       -0.7613266104      -10.2229191643
 C        -9.7258065574        0.6125998675      -10.0971764660
 O       -10.8742116333        0.6963367915      -10.4308837379
 C        -8.8299616824        1.8173517961       -9.5134925762
 C        -8.9027052100        2.8466566557      -10.6616666319
 O        -9.9735766699        3.3088225061      -10.9029312518
 C        -7.7907007072        3.4820978807      -11.3621925864
 C        -7.9149245552        3.2961915654      -12.9245645792
 C        -8.4354043256        1.8615852238      -13.3171078601
 O        -8.6068161211        1.0190674953      -12.5391337422
 C        -8.7374322776        1.5855346988      -14.7723981234
 C       -10.3494653528        1.8516858256      -14.9118969293
 O       -11.0554538287        1.4871659899      -14.0123085349
 C       -10.9615135554        2.2954944860      -16.2561619135
 C       -12.3528009200        3.0287252015      -16.0404169995
 C       -12.3943454052        4.4770895597      -15.5615635466
 O       -11.3861967033        5.1201863083      -15.6729502584
 C       -13.6752840000        5.1201858799      -14.9320718414
 C       -13.7577899432        4.6160498024      -13.5641897690
 O       -12.7059989478        4.2764259311      -13.0888830928
 C       -15.0184213930        4.7356003820      -12.7512236219
 C       -14.7617400659        4.1886579633      -11.3084852755
 C       -15.0360499660        2.6677611917      -11.2190504208
 O       -14.0537956635        1.9428526081      -11.3508111014
 C       -16.3562993886        1.9550691866      -10.8913055826
 C       -16.4140922908        1.6067363343       -9.2792197323
 O       -16.7265512530        0.4706001695       -9.0115120164
 C       -16.2386146304        2.8402125535       -8.3418824294
 C       -16.3611662320        2.4745079757       -6.8548789368
 C       -16.9636269192        3.7060109590       -5.9720227087
 O       -18.0396789531        3.6102502650       -5.4513033882
 C       -16.0522513587        5.0995089065       -5.9605080843
 C       -16.5929808859        5.8573390298       -7.3131431407
 O       -16.1052187957        5.6498779445       -8.4249647322
 C       -17.7752878842        6.6944840681       -7.1011937437
 C       -16.4836009074        5.8712133480       -4.6060578284
 C       -14.5400610839        4.8343443046       -6.0853454613
 C       -17.6758732328        2.6595096755      -11.3916109854
 C       -16.2561090408        0.5850374363      -11.7018746857
 C       -13.5223361931        6.7092829793      -15.0009116965
 C       -14.9250371892        4.7250819247      -15.7773376502
 C        -7.9906939213        2.4677449339      -15.7001388490
 C        -8.4307612034        0.0811188058      -15.0792567562
 C        -9.6567799252        2.3270282519       -8.3056647903
 C        -7.3994999710        1.3479051625       -9.2896164490
 C       -11.1759263175       -3.5068921972      -12.5130126906
 C        -9.8751083768       -5.5357633655      -11.6324589476
 C        -2.8268069421       -3.4259314046      -13.3612192950
 C        -2.8882572308       -5.8212997032      -14.3331052678
 C         1.1214001496       -6.9382242319      -10.6261362474
 C        -0.0971958112       -8.1865785365       -8.8723576663
 C         4.9801150447       -1.9370109565       -6.7205626585
 C         5.0421271361       -1.8961736861       -9.2132023355
 C        10.6458468246       -0.7988282710      -10.6770591810
 C        11.4094090349       -2.4983951045      -12.3765796291
 C        14.0904154913       -6.8473618580       -7.0581160701
 C        12.3930209551       -8.3508049808       -8.3198752331
 C         8.9249399351       -5.6537961890       -2.7112220123
 C         8.1239452830       -3.7136337320       -4.1325552619
 H        11.2099662970       -4.9064375961       -1.9695791591
 H        11.5933172700       -3.0865994687       -2.4108135772
 H        12.4753755404       -4.4362925545       -3.2079669577
 H         8.5385574118       -7.8984526286       -4.9457084614
 H         9.7559742855       -7.5903764632       -4.0602514496
 H        10.0167114837       -7.5857510633       -7.2286613066
 H        10.5695466000       -8.9078498041       -6.3700976947
 H        14.1198534170       -5.2533359881       -9.0997236504
 H        13.3440461253       -3.9043936784       -8.3269854638
 H        11.8836684880       -4.9992730533      -10.8274290354
 H        13.0757999293       -3.8287053897      -10.8624926184
 H         7.5053379206       -1.9579361283      -10.7295630239
 H         8.6755550535       -1.7440899456       -9.4059045429
 H         8.3611879879       -4.3856494237       -9.0407090251
 H         6.7882884759       -4.1795753679       -9.7197990170
 H         2.7384725009       -3.3167712966       -7.6436072762
 H         3.2426606496       -4.6717834013       -6.6182579803
 H         3.1585780869       -5.8207240237       -9.3002955417
 H         1.8632730145       -4.5673842793       -9.3393063286
 H        -2.7932150699       -5.2364932562       -9.7942637561
 H        -2.6441234755       -6.8157689396       -9.7298763544
 H        -1.6678502969       -6.7370658250      -11.9441322706
 H        -1.5353983413       -4.9800639907      -11.9178875312
 H        -6.1335413462       -2.9187011735      -13.8291035560
 H        -5.5379817077       -3.5961761634      -12.0756066518
 H        -7.1570590742       -5.0870967575      -11.8435983306
 H        -7.4586738472       -5.2941924335      -13.6348786936
 H       -10.7817706538       -1.8610591255       -9.6511495668
 H       -10.7327306036       -1.5059748142      -11.3678802153
 H        -8.3163537182       -0.6747618089      -11.0269331598
 H        -8.4153024680       -1.2090458887       -9.3822689377
 H        -6.7487923254        3.4171614836      -11.0291405499
 H        -7.9504006053        4.6023523009      -11.1478091607
 H        -6.8509560902        3.4755693059      -13.1934651091
 H        -8.5996359891        4.0123827064      -13.2377916250
 H       -11.1443179171        1.4578169317      -16.8383298286
 H       -10.2012599425        2.9577074951      -16.8275546027
 H       -12.9391473076        2.3312856432      -15.4221919855
 H       -12.8568554370        2.9848495054      -17.0339144600
 H       -15.8996934428        4.4403631279      -13.2247779007
 H       -15.2792393585        5.7883296153      -12.6328297816
 H       -15.3973836182        4.7403103969      -10.5830924076
 H       -13.6615056803        4.3018519865      -11.1351491839
 H       -16.9460521624        3.6011069669       -8.6442586894
 H       -15.2007331794        3.2458100027       -8.5498900377
 H       -15.4273033055        2.1336761041       -6.3415477090
 H       -16.8862396335        1.5920725546       -6.5570965446
 H       -17.4210724264        7.6103723239       -6.5007982774
 H       -18.5008797676        6.1002807771       -6.5996314495
 H       -18.2640136250        7.0284310808       -7.9829725523
 H       -16.3441846533        6.9279120350       -4.8780006707
 H       -15.7898873002        5.5378828115       -3.8434634470
 H       -17.4998429177        5.6223485080       -4.3283289922
 H       -14.3637026309        4.5905284255       -7.1536750421
 H       -14.3400547997        4.0269540723       -5.4228424028
 H       -13.9113560244        5.7376241317       -5.8620355733
 H       -18.5646395151        2.0289993947      -11.4744327106
 H       -17.5686740381        3.1174659065      -12.3925973840
 H       -17.9384927061        3.5623160051      -10.8068054563
 H       -17.0891646150       -0.0969173115      -11.4582740674
 H       -15.2548931384        0.2182114043      -11.4402197595
 H       -16.1652357927        0.8141390852      -12.7792486839
 H       -13.5571009902        7.0164087010      -13.9871384605
 H       -14.3709675671        7.1744053984      -15.4397825020
 H       -12.6391208535        6.9263172797      -15.5656176066
 H       -14.8685326655        3.7122787815      -16.1885533595
 H       -15.1204027870        5.4202675877      -16.6442752015
 H       -15.8884259739        4.7626931877      -15.2257622320
 H        -6.8678458839        2.2792343935      -15.5715657019
 H        -8.1143648859        3.5228654046      -15.4167223402
 H        -8.2470560310        2.2256766664      -16.7105242960
 H        -7.3181707352       -0.1827265095      -14.8898920526
 H        -8.6927764189       -0.1137971002      -16.1280467278
 H        -9.0457834548       -0.5964420030      -14.5231521096
 H       -10.7189509110        2.2268546813       -8.6024120266
 H        -9.4993523798        3.3727061154       -8.0995007426
 H        -9.4040151110        1.7465806615       -7.3710045028
 H        -7.4549484804        0.6504343644       -8.4062267734
 H        -6.7384818398        2.1179347687       -8.9683375655
 H        -6.9534902078        0.7692788187      -10.1308217806
 H       -11.0676540575       -2.6010863106      -13.1024623542
 H       -12.0630101039       -3.3631390681      -11.8244925766
 H       -11.5541503305       -4.3102325091      -13.1522732998
 H       -10.6908925055       -5.6954531036      -10.9134691492
 H        -8.8846468070       -5.8524928011      -11.2952930980
 H       -10.0230666274       -6.1146042069      -12.6065096115
 H        -2.9779339263       -3.0960206929      -14.4124956102
 H        -1.7964106217       -3.2483592891      -13.0090918683
 H        -3.5456186623       -2.8001067927      -12.8061015836
 H        -1.8520649728       -5.9607637315      -13.9793459928
 H        -2.9256653819       -5.4793226796      -15.4446758942
 H        -3.3620993325       -6.7890709359      -14.2939646116
 H         1.4435481482       -5.9463721658      -11.0089443278
 H         0.3680773843       -7.1881485518      -11.3514123472
 H         1.9897086745       -7.5590718463      -10.6555274995
 H        -0.8061975817       -8.1638391764       -8.0396488473
 H         0.6570032746       -8.9556952321       -8.6164455722
 H        -0.6302454715       -8.4068662881       -9.8304224577
 H         5.3620748336       -2.3578053412       -5.8090372343
 H         3.8739132231       -1.8038287880       -6.6187227066
 H         5.3565451220       -0.9824175364       -6.9190418784
 H         4.0302645066       -1.6560818780       -9.1307544432
 H         5.3056176148       -2.4739077566      -10.1155601123
 H         5.6261602577       -1.0080358551       -9.2158271600
 H         9.9193741699       -0.3605729515      -11.4194399847
 H        11.5715453259       -0.2638309195      -10.7835085410
 H        10.3851970239       -0.6688668856       -9.5756392817
 H        10.8548998244       -1.8617808681      -13.1071804566
 H        11.4639088550       -3.5623862381      -12.6830015960
 H        12.4599571912       -2.1084834455      -12.3311406783
 H        14.6932045226       -6.7404667091       -7.9859214210
 H        14.4673372436       -7.7396630626       -6.6008043205
 H        14.1726540996       -5.9092202142       -6.4870046669
 H        12.6590433674       -9.2457180648       -7.7432149037
 H        13.0495593709       -8.2594347907       -9.1608360930
 H        11.3096630903       -8.4420164836       -8.5085984072
 H         8.6475038202       -5.0716764549       -1.8151523314
 H         9.6651437793       -6.2853120983       -2.3067512550
 H         8.1430170537       -6.3207018127       -2.9285986373
 H         7.3296973830       -3.8049995603       -3.3800202332
 H         7.6858269826       -3.8704695236       -5.1184035867
 H         8.5380375686       -2.7168647613       -4.1334036244
 Na        9.8216222744       -3.2060396812       -7.0292775197
 Na      -11.7644264953        2.3473159942      -11.6916435442
