232

 C        11.8161368003       -4.1491775573       -2.8838002774
 C        10.7693193188       -4.2756480761       -4.0819571852
 O        11.0708335451       -3.6761727013       -5.0399192006
 C         9.3300146020       -4.9046513963       -3.8995621924
 C         9.0950729193       -5.8393027586       -5.2181575648
 O         8.8391138931       -5.3713451684       -6.2762599119
 C         9.3054192446       -7.4188039148       -5.0378200210
 C        10.0699942306       -7.8748865284       -6.3148986497
 C        11.3908141954       -7.0174599080       -6.3129974778
 O        11.7004372121       -6.5420582094       -5.2152121924
 C        12.4255557289       -7.0802629037       -7.5515063177
 C        11.9717174529       -5.9540088866       -8.5476449823
 O        10.7725368155       -5.9234758978       -8.8596894571
 C        13.0911822697       -5.0931486149       -9.1619582260
 C        12.6244588335       -4.0036883680      -10.1536624978
 C        11.4364087244       -3.1705592001       -9.7548035246
 O        11.0755499022       -3.0186372429       -8.5779872580
 C        10.8023144157       -2.2677521503      -10.9244734514
 C         9.2380001384       -2.7532793467      -11.0437827608
 O         8.8717511068       -3.4078139494      -11.9696925401
 C         8.2607799027       -2.3009581308       -9.9731561874
 C         7.6698432894       -3.3901664840       -9.1028937167
 C         6.8947438635       -2.8610399043       -7.9248741407
 O         7.5314945765       -2.3801626941       -6.9320458226
 C         5.3701200166       -2.6795929954       -7.9816883639
 C         4.7900234129       -4.1767490607       -8.2074553819
 O         5.3919406735       -5.0199431415       -8.7915872530
 C         3.1583265803       -4.3482304086       -8.0178495939
 C         2.8561108321       -5.5654489705       -8.7657345635
 C         1.3965971851       -6.1969550771       -8.2623440556
 O         1.1638047212       -6.2167726036       -7.0760288918
 C         0.3966001276       -6.7287437135       -9.4209767544
 C        -0.7866711509       -5.6707053887       -9.4812807373
 O        -0.4853358362       -4.5288295350       -9.2686461824
 C        -2.2643079353       -6.0515077955       -9.9542349131
 C        -2.2847192505       -6.0701007863      -11.4092270720
 C        -3.5792612813       -5.7311103904      -12.0609095895
 O        -4.6230031373       -5.8558115445      -11.4351037842
 C        -3.4253249756       -4.9505838076      -13.4460947161
 C        -4.9188699271       -4.8689243452      -13.8980820200
 O        -5.2701279544       -5.5328995659      -14.8304758113
 C        -5.9340751101       -4.0558466257      -13.0713098648
 C        -7.2218996112       -4.7891030914      -12.6238210927
 C        -8.3732667218       -3.8141297361      -12.5090991088
 O        -8.3652874846       -2.8115376235      -13.1449043369
 C        -9.6107125379       -4.1818088377      -11.6438162504
 C        -9.4446333069       -3.2374202839      -10.4114593729
 O        -8.7269591267       -3.5702766754       -9.4672666470
 C       -10.0692817801       -1.8425267447      -10.3369711401
 C        -9.1309954991       -0.7442072020       -9.6243032185
 C        -9.7124238761        0.8459660309       -9.8025433452
 O       -10.8239113155        0.9653151851      -10.2460242504
 C        -8.7653154598        2.0686489076       -9.3154261507
 C        -9.0719837644        3.2395833557      -10.2848522547
 O       -10.1341617740        3.7403228629      -10.1421618487
 C        -8.1707005352        3.7604728280      -11.3985312932
 C        -8.8242335028        3.5333127296      -12.7866155842
 C        -8.7618653095        2.0664010417      -13.2371636522
 O        -8.3908732875        1.2118383510      -12.5002556036
 C        -9.0728678012        1.7543951929      -14.7568751467
 C       -10.6389758264        2.0414925725      -14.9221540036
 O       -11.3574722813        1.8643150895      -13.9164526221
 C       -11.2374906278        2.4192032909      -16.2719934550
 C       -12.6421340011        2.9656385029      -16.2084336731
 C       -12.6846255431        4.4057663939      -15.8983264369
 O       -11.7205076809        5.0788143040      -16.1538955904
 C       -13.8644975962        4.9751651462      -15.1783566559
 C       -13.6963518091        4.5707910928      -13.6554306827
 O       -12.6391039158        4.0849530329      -13.2720237520
 C       -14.8699642709        4.6865658369      -12.7083221572
 C       -14.5862559795        4.1112130728      -11.2533523943
 C       -14.7776638276        2.5888021581      -11.2106102811
 O       -13.8447401411        1.8127586706      -11.3264345341
 C       -16.2012763328        1.9090576572      -11.0631579230
 C       -16.4622041901        1.5340318340       -9.4915846462
 O       -16.6649335852        0.4150523529       -9.1053706332
 C       -16.1588575367        2.6769694439       -8.4822169705
 C       -16.2646970903        2.3018510786       -7.0054445479
 C       -16.5909112123        3.4666094041       -6.1177333221
 O       -17.3945749893        3.2568039549       -5.1811904642
 C       -15.8675327728        4.7607214663       -6.1527175233
 C       -16.3735498630        5.7010358033       -7.1978052628
 O       -15.9392693917        5.5998791403       -8.3603198590
 C       -17.2365609628        6.8962994035       -6.9027869204
 C       -15.9527754000        5.2769105518       -4.7343515196
 C       -14.3223032003        4.6289281932       -6.4059731506
 C       -17.4266145302        2.7346820514      -11.4948597795
 C       -16.1133330216        0.5376720918      -11.8286046123
 C       -13.7998239231        6.5461962631      -15.1892195340
 C       -15.2093881205        4.3653810193      -15.6441979925
 C        -8.2461710387        2.5437440044      -15.8872307627
 C        -9.1086888173        0.2254737193      -14.9455776809
 C        -9.4371538390        2.3386824021       -7.9214764549
 C        -7.3418036009        1.7062436102       -9.2073923121
 C       -10.8992951196       -3.8862656433      -12.4248174343
 C        -9.6139715744       -5.7557440882      -11.2358518597
 C        -2.9380881902       -3.4694053802      -12.9164198086
 C        -2.5321665764       -5.4345317408      -14.5204526647
 C         1.0575075201       -6.6392742991      -10.8692702985
 C        -0.0331674068       -8.1864588845       -9.1204265163
 C         4.7134353549       -1.9773791405       -6.7412688575
 C         4.8591758420       -1.9238646637       -9.2862168147
 C        10.8143168282       -0.7454341789      -10.5418154201
 C        11.3870969192       -2.3994062759      -12.3835693877
 C        13.9260157914       -6.8332432725       -7.0348006318
 C        12.2338491776       -8.3999328500       -8.3757108232
 C         9.2014675667       -5.6785227644       -2.6098702216
 C         8.2751613816       -3.7044101966       -3.9950755242
 H        11.5118047027       -4.3708856544       -1.8910899561
 H        12.2270555776       -3.1699428170       -2.8873091785
 H        12.6367044119       -4.7960301300       -3.2027006261
 H         8.3384163051       -7.9739794778       -4.8817228536
 H         9.8122665692       -7.7326927038       -4.1013761628
 H         9.6311310684       -7.7377949303       -7.2784124836
 H        10.3999263691       -8.9596452424       -6.2702954828
 H        13.8785989113       -5.6761787542       -9.6691418025
 H        13.4526797208       -4.5705399113       -8.2996465713
 H        12.3375249444       -4.5532153427      -11.1084095028
 H        13.4683380735       -3.3705469444      -10.3081713157
 H         7.4121551771       -1.7924223993      -10.5696169502
 H         8.7668141503       -1.4352359199       -9.4256393327
 H         8.4235290583       -3.9981326043       -8.5811325749
 H         7.2085106149       -4.1513296971       -9.7855631344
 H         2.6683644163       -3.4183590795       -8.3072397467
 H         2.8504745315       -4.3975985390       -6.9587064395
 H         3.5940023556       -6.3670737554       -8.7171572273
 H         2.7306667541       -5.3265809583       -9.8091663353
 H        -3.0179612295       -5.2682766017       -9.6768906681
 H        -2.7045700011       -6.9949999577       -9.6452446019
 H        -2.0475438364       -7.0555433390      -11.7684673730
 H        -1.4648781592       -5.4650603008      -11.9012516832
 H        -6.2545247426       -3.2020388248      -13.6692434462
 H        -5.3859365444       -3.6077176752      -12.2052661044
 H        -7.1521648479       -5.2235953658      -11.6118778415
 H        -7.5556762016       -5.4139987643      -13.4542780205
 H       -10.9518313303       -1.9546320593       -9.6136706073
 H       -10.3542801870       -1.4220449175      -11.2783971765
 H        -8.2135550263       -0.7481143993      -10.1987444521
 H        -8.7456698465       -0.9906831499       -8.6072417393
 H        -7.1206784145        3.4103754732      -11.3387910917
 H        -7.9705711680        4.8296032166      -11.2434025206
 H        -8.3150581889        4.1847753272      -13.5252074013
 H        -9.7781864189        3.8279216547      -12.5455957688
 H       -11.1299715959        1.5927240931      -16.9445512908
 H       -10.6504040780        3.3270814929      -16.6869318583
 H       -13.2114137438        2.4070787837      -15.4106102888
 H       -13.1699183897        2.6762764335      -17.1405287910
 H       -15.7034802427        4.0909171718      -13.0538472708
 H       -15.3006212202        5.6961433993      -12.7357043593
 H       -15.3314346608        4.4789027646      -10.4627667365
 H       -13.5371803411        4.3090007886      -10.9274406759
 H       -16.8345867558        3.4243921839       -8.8782151523
 H       -15.1709464097        3.1181588679       -8.7724638870
 H       -15.3486222864        1.8129661566       -6.5247642526
 H       -17.0823087720        1.5602937429       -6.7831963084
 H       -17.2278056182        7.3463818104       -5.8591284359
 H       -18.2609401840        6.6963093859       -7.2578205816
 H       -16.8682875747        7.6906318671       -7.5824887185
 H       -15.2873817438        6.2091068164       -4.7820725305
 H       -15.4485116270        4.5589108967       -4.0666436817
 H       -16.9520800092        5.4770184787       -4.5184602225
 H       -14.0737116621        4.1516702489       -7.2705909953
 H       -13.9915009457        4.1989894362       -5.4850489586
 H       -13.8988800870        5.6792015720       -6.4170382924
 H       -18.3342750925        2.1286795595      -11.3611406296
 H       -17.3047361396        2.9538856387      -12.5965561358
 H       -17.7122972697        3.6919605844      -10.9566648195
 H       -17.0521826167        0.0018046643      -11.5548611493
 H       -15.3393221242       -0.0478490991      -11.4323610291
 H       -16.1635870137        0.7834811670      -12.8917981104
 H       -14.5053880793        6.9325756689      -14.4388764404
 H       -14.1402477680        6.8281884397      -16.1780994016
 H       -12.7525692934        6.8762733139      -15.1796667740
 H       -15.6883766418        3.6345701766      -15.0126107496
 H       -15.0370542347        4.1192653321      -16.6435507101
 H       -15.9857576415        5.0552998736      -15.8540194321
 H        -7.1634259551        2.3611854243      -15.9329667263
 H        -8.3021778147        3.7444632823      -15.7754675403
 H        -8.4958377379        2.1196049660      -16.8702060378
 H        -8.1409721455       -0.3702365888      -15.0660380394
 H        -9.6626154368        0.0649754076      -15.8705908546
 H        -9.5442286873       -0.2543083496      -14.1005439060
 H       -10.1925332980        3.0586158508       -8.1775506767
 H        -8.7841561600        2.8260137357       -7.1766683557
 H        -9.9562092481        1.4291438709       -7.5345220220
 H        -7.2651586103        0.8681533124       -8.5136812524
 H        -6.6936963313        2.5774330002       -9.0508595724
 H        -7.0294660801        1.3598971961      -10.2202790396
 H       -11.0655563182       -2.8908593338      -12.6747419581
 H       -11.7913992052       -4.2915256583      -11.8980501886
 H       -10.8300795491       -4.2979147517      -13.3885673449
 H       -10.6890126607       -5.9596268165      -11.1330986422
 H        -9.1848616371       -6.0015442174      -10.2686149402
 H        -9.2725670605       -6.3756355980      -12.0652175046
 H        -3.2565896422       -2.7491748537      -13.6560802334
 H        -1.8479587178       -3.4178764492      -12.8891987893
 H        -3.3764657574       -3.2015609618      -11.9692874984
 H        -1.5008745450       -5.4488138523      -14.1665463235
 H        -2.5312272950       -4.6766653903      -15.3064651371
 H        -2.7498195315       -6.3959115290      -14.8018531200
 H         0.9706418544       -5.6204665773      -11.1902766491
 H         0.5004418279       -7.2039610330      -11.6044684183
 H         2.1269968563       -6.8523976603      -10.8196729520
 H        -0.3683509083       -8.2651919655       -8.1169415131
 H         0.7474725787       -8.8994566207       -9.3290765154
 H        -0.7475147209       -8.4197812737       -9.8706073535
 H         4.7477648796       -2.6009230294       -5.8411241952
 H         3.6899754557       -1.7764006301       -6.8259767479
 H         5.2675323096       -1.0710879616       -6.6093076777
 H         3.7864252743       -2.0570622409       -9.3077575030
 H         5.1998500342       -2.4780371138      -10.1097816887
 H         5.1598286829       -0.8672124625       -9.3350620438
 H         9.8891891681       -0.2964016921      -10.9813897116
 H        11.6478820456       -0.2244201578      -11.0448894362
 H        10.7812838474       -0.6224283899       -9.4394343761
 H        10.7904054274       -1.6907240531      -12.9216995736
 H        11.1441205575       -3.4254315226      -12.7216547536
 H        12.4860547114       -2.3108446002      -12.3816430410
 H        14.7886344931       -7.1222402973       -7.6831492257
 H        14.0183752056       -7.3966978800       -6.1298280950
 H        13.9680508775       -5.7896860837       -6.7990908060
 H        12.2204560880       -9.2549353328       -7.7255406041
 H        12.9559912291       -8.5140352436       -9.1239636501
 H        11.2559189782       -8.2576518937       -8.8195385193
 H         8.9197769051       -5.0618871586       -1.7215721096
 H        10.1008094859       -6.1476247254       -2.2446413776
 H         8.3884248694       -6.4105638307       -2.6784709389
 H         7.9387498800       -3.4412795591       -2.9575049332
 H         7.3157265256       -3.9297384906       -4.4885108351
 H         8.8052650782       -2.8412790701       -4.3546261767
 Na        9.6807374236       -3.2932673722       -6.8907256486
 Na      -11.6127775672        2.5910690710      -11.7024688956
