232

 C        11.8212210378       -4.3427312824       -2.9090828962
 C        10.8104661184       -4.2345981986       -4.0267202519
 O        11.0659224483       -3.5904054164       -5.0715762021
 C         9.4043477800       -4.9406623543       -3.8472892824
 C         9.1301086396       -5.9065429622       -5.0718896551
 O         8.8027822171       -5.4557383517       -6.1697760993
 C         9.3308332190       -7.3999093714       -5.0699333905
 C         9.9654976190       -7.7909910463       -6.3852459192
 C        11.3768554723       -7.1622927566       -6.3770687514
 O        11.7016971775       -6.4361416349       -5.4735756155
 C        12.2880142192       -7.1431810037       -7.5427515120
 C        11.9954248154       -5.9457602946       -8.5549039907
 O        10.8230423331       -5.9433576006       -8.9809413740
 C        12.9981411265       -4.9699668314       -9.0258658636
 C        12.5304938568       -4.1350177084      -10.2335804753
 C        11.4641230086       -3.1749521143       -9.8262121188
 O        11.1499271009       -3.0010354930       -8.6479240841
 C        10.7507099315       -2.2943877456      -10.8817500700
 C         9.2271836454       -2.6394387217      -11.0058178284
 O         8.8747874156       -3.3418886631      -11.9288958566
 C         8.3299201810       -2.0176875749       -9.9143891476
 C         7.5841309583       -3.1012697873       -9.2634400187
 C         6.9058997473       -2.6858672522       -7.9842842505
 O         7.4562641950       -2.3859592938       -6.9109532107
 C         5.2971388606       -2.7321610392       -8.0524551647
 C         4.7160593444       -4.1762765483       -8.3546351503
 O         5.4858520455       -5.0561142400       -8.7568276178
 C         3.2561600160       -4.4795213035       -8.0886959258
 C         2.7679009822       -5.6425135090       -8.7844318288
 C         1.4324845898       -6.1654856588       -8.3862419869
 O         1.1653940427       -6.2165815575       -7.1912125987
 C         0.3915026170       -6.6398310126       -9.4384081254
 C        -0.7279355291       -5.6518784823       -9.5272681470
 O        -0.5436546553       -4.4358983455       -9.4519995103
 C        -2.1627455184       -6.1399227754       -9.9388770544
 C        -2.2215320230       -6.3086125434      -11.5345193945
 C        -3.6028804450       -5.6490050603      -12.0483161761
 O        -4.6460616761       -5.8964471147      -11.4396468822
 C        -3.4963076661       -4.7411774808      -13.3544713125
 C        -4.9909563703       -4.8756566761      -13.9060291541
 O        -5.3270291756       -5.6284626467      -14.8479029071
 C        -6.0474342043       -4.1242514165      -13.1342859171
 C        -7.1724739219       -4.8833211126      -12.6203954078
 C        -8.3766558181       -3.8578528356      -12.5060162285
 O        -8.3275428634       -2.7959863965      -13.1239523197
 C        -9.5971141962       -4.1948243459      -11.5807676271
 C        -9.3957873938       -3.1906403720      -10.1870012380
 O        -8.6601722073       -3.6020330778       -9.3653399183
 C       -10.0450649684       -1.7248348672      -10.3838983897
 C        -9.2428390939       -0.6772745513       -9.6215349412
 C        -9.6421033617        0.7414136530       -9.8299594158
 O       -10.7342821463        1.0021079281      -10.3316905346
 C        -8.7875387832        1.9731005472       -9.3184498163
 C        -9.1915141249        3.2833293561      -10.2265708916
 O       -10.2799743603        3.8327832728      -10.1133945719
 C        -8.3272495310        3.8506828840      -11.3421133508
 C        -8.9468124826        3.5825195836      -12.7575650611
 C        -8.7232403150        2.1718875159      -13.2506838730
 O        -8.3069340471        1.2699278858      -12.4697633095
 C        -9.2833193458        1.7552088999      -14.6968966348
 C       -10.7234814621        2.1660204183      -14.9475504393
 O       -11.5312597854        1.8590838753      -14.0469569759
 C       -11.2515418412        2.4008318536      -16.3824036558
 C       -12.7392947374        2.8513660908      -16.3756813090
 C       -12.7377753369        4.3999449388      -16.0326091406
 O       -11.8019276370        5.1289821580      -16.3182858900
 C       -13.9748146614        4.9525686865      -15.1525364317
 C       -13.6821485666        4.4032752455      -13.6054309221
 O       -12.5226105144        4.1270748405      -13.2823195266
 C       -14.8273605663        4.5853600037      -12.6485332565
 C       -14.6489445572        4.0344248299      -11.2640275039
 C       -14.8384387761        2.5282224226      -11.2603859875
 O       -13.8470798363        1.8007830933      -11.2865847340
 C       -16.1820946781        1.8803476791      -11.1445782819
 C       -16.2408158390        1.5898658600       -9.5168556277
 O       -16.6111005670        0.4834679494       -9.3011775889
 C       -16.1858128752        2.7361955515       -8.4722243326
 C       -16.2229011420        2.0800029807       -7.0548593932
 C       -16.5242154673        3.2356399270       -5.9864533213
 O       -17.3629932146        3.1936759191       -5.1284049348
 C       -15.7071329804        4.7475502233       -6.0960053379
 C       -16.2109926263        5.7489597288       -7.2777933124
 O       -15.8578580451        5.6287543056       -8.4518909089
 C       -17.1852502430        6.9664922056       -6.7744687094
 C       -15.8103524384        5.3714885936       -4.6286654658
 C       -14.2062057330        4.4660236613       -6.4989744967
 C       -17.4169652070        2.6690752566      -11.5683645369
 C       -16.1468277060        0.5517683444      -11.9155055166
 C       -13.9256274195        6.4868637599      -15.1325011881
 C       -15.3397052781        4.3132589588      -15.5796151335
 C        -8.3262512127        2.4903823808      -15.6570260827
 C        -9.1722123512        0.2720551732      -14.9871383003
 C        -9.3254730690        2.4364708189       -7.8730472671
 C        -7.2575946327        1.5968429141       -9.1610296358
 C       -10.8743005651       -3.9547369881      -12.2914328331
 C        -9.4457467450       -5.6590779660      -11.1875402856
 C        -2.9622523683       -3.3335026258      -12.9375880792
 C        -2.5058246671       -5.4085044179      -14.3678622209
 C         1.0660777080       -6.5642339194      -10.7785058027
 C        -0.0858332901       -8.1275542328       -9.0241974081
 C         4.7130079057       -2.1553273546       -6.7582286192
 C         4.7853969528       -1.9794304635       -9.2825973166
 C        10.9156080484       -0.8047459883      -10.4197451044
 C        11.4003695842       -2.4211409763      -12.3329758896
 C        13.7520217962       -6.9324714556       -6.9721933908
 C        12.2976449302       -8.4331298213       -8.3695317648
 C         9.2605580333       -5.6695953027       -2.5114152791
 C         8.4347042833       -3.7609322934       -3.9261852449
 H        11.2589388025       -4.3162341050       -1.9499663640
 H        12.4588228391       -3.4065973209       -2.8471783328
 H        12.5455068983       -5.2387759966       -2.9911780696
 H         8.3452233300       -8.0058105974       -5.0360892982
 H         9.8371644005       -7.7451887558       -4.2242835120
 H         9.4214367364       -7.4522024726       -7.2619756449
 H        10.0586531959       -8.8633669455       -6.4637834963
 H        13.7835225502       -5.5684875801       -9.4730637954
 H        13.3600202459       -4.3198350077       -8.1512332823
 H        12.1638806252       -4.8405958892      -10.9567431691
 H        13.4338170411       -3.6118931651      -10.5451855343
 H         7.6564857179       -1.2577944815      -10.4124366420
 H         8.9658103823       -1.4131755726       -9.2162479111
 H         8.2230819543       -3.9303888344       -9.0344367732
 H         6.9094473126       -3.5788375555      -10.0008942296
 H         2.7925392987       -3.5150498143       -8.3222033051
 H         3.1205358394       -4.4586905204       -7.0321664456
 H         3.3768682326       -6.5643446365       -8.6330852873
 H         2.7920573645       -5.5090663662       -9.8282098708
 H        -2.8671890778       -5.2859934001       -9.7667144567
 H        -2.4928529631       -7.0118847272       -9.4863619075
 H        -2.1559415022       -7.4524351127      -11.9245513944
 H        -1.3825692999       -5.8714247563      -11.9945939754
 H        -6.4836872078       -3.3048175011      -13.8622878031
 H        -5.5571517666       -3.4715479852      -12.3015343817
 H        -6.9718285589       -5.1426279616      -11.5724035703
 H        -7.4387844551       -5.6193574901      -13.3397601339
 H       -10.9696452659       -1.6986476134       -9.9215453220
 H       -10.0931829765       -1.4558591919      -11.4555008868
 H        -8.1345565302       -0.7940961254       -9.7412595148
 H        -9.3251484805       -0.7853850427       -8.5848893941
 H        -7.2770613617        3.3592391804      -11.3159812133
 H        -8.0147256809        4.8815837627      -11.1628755782
 H        -8.4749912295        4.2199158445      -13.4685834647
 H       -10.0407463873        3.7718257276      -12.6250232344
 H       -11.0829308543        1.3667426682      -16.8166737268
 H       -10.7277466291        3.0807177548      -16.9540533027
 H       -13.2623787645        2.2229352420      -15.5796152768
 H       -13.2502263913        2.6136941778      -17.2925444296
 H       -15.8242579228        4.2218886397      -12.9901176137
 H       -14.9139009247        5.6073546058      -12.6306173506
 H       -15.2717570302        4.5258788385      -10.4413661441
 H       -13.5981660598        4.1420489788      -11.0224388520
 H       -17.0208197156        3.3191752016       -8.9065714273
 H       -15.3456452408        3.3803815840       -8.6762497007
 H       -15.2374122252        1.6859834892       -6.7827766004
 H       -16.9726397793        1.2420961182       -6.9680364117
 H       -16.9998444422        7.2183895877       -5.7884158389
 H       -18.2848408606        6.8135758803       -6.8919744781
 H       -16.9117928563        7.9100996706       -7.3150233528
 H       -15.3880363246        6.3862874826       -4.6091613047
 H       -15.1889046692        4.7448591416       -3.9652357896
 H       -16.8765635495        5.3423992881       -4.3740809713
 H       -14.2002159217        4.0571487217       -7.4880104390
 H       -13.7544715866        3.8021078440       -5.7179370586
 H       -13.6665590425        5.4183527949       -6.5049607249
 H       -18.2859113299        1.9896067093      -11.6462102328
 H       -17.2111070508        3.0956142866      -12.5823526682
 H       -17.8396262220        3.4645097974      -10.9041170655
 H       -16.9932818318       -0.0761401634      -11.5766056295
 H       -15.2698794832        0.0126019257      -11.6361600225
 H       -16.3441576443        0.8625441623      -12.9496751567
 H       -14.8263433241        6.9193687939      -14.7163552049
 H       -13.6923343314        6.8248641711      -16.1233947866
 H       -13.0460617346        6.7338953333      -14.5680040364
 H       -15.7151351769        3.5901602416      -14.8220442578
 H       -15.1991962337        3.9835873520      -16.5628818640
 H       -16.2032876261        4.9381329625      -15.7422978332
 H        -7.3499318061        2.1057381000      -15.5425926027
 H        -8.2124506943        3.5266983713      -15.4266847429
 H        -8.4726378531        2.3013649843      -16.7432669505
 H        -8.1655371155       -0.0871346788      -14.8820538868
 H        -9.4456339934        0.0662717587      -16.0483074552
 H        -9.6994785412       -0.3842943831      -14.2318838250
 H       -10.1779585022        3.0947214071       -8.0220858828
 H        -8.5241780701        3.0733967744       -7.3464274496
 H        -9.6587216860        1.6011444250       -7.2608648288
 H        -7.3011206983        0.9233151098       -8.3524656200
 H        -6.5558011131        2.4984391886       -9.0296136103
 H        -6.8573057187        1.0852702999      -10.0303160455
 H       -10.9514830179       -2.8952426319      -12.5765413674
 H       -11.7580398528       -4.2281445952      -11.7165491813
 H       -10.8969894221       -4.3143303731      -13.3050649686
 H       -10.4318409261       -6.1562716171      -10.9071751944
 H        -8.8171510038       -5.6779490036      -10.2459122685
 H        -9.0502908044       -6.2087750009      -12.0213971494
 H        -2.8999579530       -2.8097461786      -13.8771436707
 H        -1.8722940366       -3.5228217304      -12.7290816212
 H        -3.4573750842       -2.7224814746      -12.1823912822
 H        -1.4548864054       -5.4835146014      -13.9577838900
 H        -2.4046465164       -4.8557918860      -15.2605986481
 H        -2.8137630070       -6.4954664135      -14.4135389212
 H         1.3975236730       -5.5917186315      -10.8619534848
 H         0.3272083582       -6.6991409707      -11.5851497180
 H         1.9525812339       -7.2385096183      -10.8788215160
 H        -0.6573739303       -7.9532266509       -8.1010416477
 H         0.7302552741       -8.8309829830       -8.8802022499
 H        -0.6197497902       -8.5658037553       -9.8328663016
 H         5.0819782319       -2.7139355062       -5.9022574940
 H         3.6947072458       -2.2064609955       -6.6448899122
 H         5.1002917393       -1.1272701989       -6.6925691344
 H         3.7168072355       -2.1190814033       -9.3830222645
 H         5.1577257075       -2.4394285279      -10.1270916337
 H         5.0344575903       -0.9274637681       -9.2324956594
 H        10.1362117367       -0.2215599193      -10.9516622256
 H        11.9366706658       -0.4255141997      -10.8409042655
 H        10.7516334092       -0.6908020822       -9.3485706917
 H        10.8574261353       -1.6610101146      -12.8854228239
 H        11.1774280901       -3.4264462694      -12.7615891789
 H        12.4829722476       -2.3216342161      -12.2225247069
 H        14.5321711541       -7.1435841884       -7.7414554197
 H        13.9418989873       -7.5556649490       -6.0629259434
 H        13.8350256098       -5.9028419182       -6.6814119634
 H        12.6214403736       -9.1997314934       -7.6617094268
 H        12.9550413720       -8.4032436008       -9.2402474097
 H        11.3024490668       -8.6035629326       -8.7394372611
 H         9.1722744269       -5.0113413984       -1.7018634582
 H        10.1439144661       -6.2718342483       -2.2755836536
 H         8.3458896203       -6.2882887618       -2.4224123132
 H         8.4232393003       -3.3105565718       -2.9190730904
 H         7.4079768406       -4.1270769395       -3.9742899467
 H         8.7032319693       -2.9739413189       -4.5989352565
 Na        9.6864455095       -3.2147146001       -6.9459218303
 Na      -11.6099776959        2.7691451327      -11.4820974297
