232

 C        11.8900287848       -4.5004658072       -2.9886508697
 C        10.8615532613       -4.2594696297       -4.0313987500
 O        11.0577282774       -3.5147940202       -5.0363185657
 C         9.4512712226       -4.9854279249       -3.8083514324
 C         9.1969935239       -5.8731786543       -5.0390438535
 O         8.7900138519       -5.2611743697       -6.0564529563
 C         9.2702976747       -7.4229764590       -5.0575086855
 C         9.9584649139       -7.7784606999       -6.3946600755
 C        11.3814231898       -7.0650867832       -6.4194966724
 O        11.6041697104       -6.3174180140       -5.4864467688
 C        12.3266494644       -7.2226034065       -7.6192640894
 C        11.8871142522       -6.0324459413       -8.6490580618
 O        10.8077254619       -5.9168163490       -9.1023833702
 C        12.9913195633       -4.9384425820       -8.9114710740
 C        12.4599746427       -4.2902896251      -10.3113506033
 C        11.4886838660       -3.1497503515       -9.8590716414
 O        11.1957485833       -2.9976508038       -8.7076520001
 C        10.8458285830       -2.1419416904      -10.9369732554
 C         9.3088168221       -2.4361959243      -11.0294766751
 O         8.7589702123       -3.2469692671      -11.7759780197
 C         8.3668680051       -1.8277104756       -9.8904318594
 C         7.4751782325       -3.0144373460       -9.3603411572
 C         6.7767980833       -2.6495373833       -8.0735904950
 O         7.3750520048       -2.4422184938       -7.0766033642
 C         5.1926430341       -2.6956016332       -8.0892393596
 C         4.8099829595       -4.2452190089       -8.2928723209
 O         5.5603390260       -5.1033642874       -8.7284300591
 C         3.3499852895       -4.5704920629       -8.0298540982
 C         2.9055900647       -5.7646103474       -8.8239321911
 C         1.4672308938       -6.1889364964       -8.3374350225
 O         1.1021175296       -6.2102051594       -7.2000173373
 C         0.3881602691       -6.5281481405       -9.5191087742
 C        -0.7965629208       -5.5602642185       -9.6422775275
 O        -0.5901312412       -4.3719735248       -9.5890228656
 C        -2.1504519975       -6.1431205229       -9.9213334757
 C        -2.2841396751       -6.4303323751      -11.5260351253
 C        -3.5211119586       -5.6564376903      -12.0071517796
 O        -4.5648330770       -5.8812061941      -11.4774208714
 C        -3.4960613567       -4.7912391434      -13.2800731316
 C        -4.9815710004       -4.8722492381      -13.9020528753
 O        -5.2004746950       -5.6511299372      -14.7831358646
 C        -6.0763822135       -3.9310376401      -13.2687112356
 C        -7.1781562238       -4.7839535097      -12.6721064895
 C        -8.3859271270       -3.8380098410      -12.4470542894
 O        -8.4166017799       -2.7704597418      -13.0600918623
 C        -9.5445080698       -4.1749404793      -11.4518753195
 C        -9.2628860067       -3.1800771251      -10.3210087810
 O        -8.7425922641       -3.4695619440       -9.2656395863
 C        -9.8509155945       -1.7773972895      -10.4139968588
 C        -9.2289875403       -0.6836413778       -9.4734759600
 C        -9.7099043691        0.7238415323       -9.8326562268
 O       -10.7049481222        0.9399832805      -10.4908055637
 C        -8.8775206670        2.0559150208       -9.2859994541
 C        -9.1996413007        3.2373201812      -10.2011166309
 O       -10.3115345060        3.7971974008       -9.9540004382
 C        -8.3250216047        3.7786470628      -11.3661494983
 C        -8.9863803599        3.6272230142      -12.7357933803
 C        -8.8973988558        2.1609478578      -13.1703322145
 O        -8.2327106905        1.3698899683      -12.5185196006
 C        -9.3287309219        1.7766426167      -14.6575335547
 C       -10.9206266379        1.9723801851      -14.9135907280
 O       -11.7536491730        2.0104998094      -14.0775384611
 C       -11.2951887673        2.3070232711      -16.3898704855
 C       -12.7410226962        2.8957795814      -16.4758293584
 C       -12.8087869702        4.3118158897      -16.0140235502
 O       -12.0332732165        5.1364963280      -16.4724337887
 C       -13.9417337800        4.7774764430      -15.0860627110
 C       -13.6403899936        4.4793048079      -13.6001963046
 O       -12.5165810207        4.1967844957      -13.3129322823
 C       -14.7666778378        4.7069056879      -12.6279899385
 C       -14.6605318415        4.0848871487      -11.2755483767
 C       -14.6815899883        2.5271085877      -11.2900543896
 O       -13.6798237025        1.8179982622      -11.2791788100
 C       -16.1735796578        1.8189460177      -11.2443060081
 C       -16.4415572254        1.4818051314       -9.6102082889
 O       -16.5235597237        0.3417383912       -9.2405403052
 C       -16.3113767982        2.6419046957       -8.5382860061
 C       -16.1631138757        2.2193745009       -7.0815298828
 C       -16.4592011005        3.3625632460       -6.0390913314
 O       -17.2372903245        3.0302433817       -5.2175561215
 C       -15.5972383807        4.6645059709       -6.0809930181
 C       -16.0902116797        5.7409533688       -7.1199910930
 O       -15.8843886473        5.6689671916       -8.2916474630
 C       -17.0174565935        6.8463713922       -6.7935302607
 C       -15.6109098922        5.3819397636       -4.7366227453
 C       -14.0731364538        4.3087568851       -6.4526359562
 C       -17.3890116255        2.7187219438      -11.6061042538
 C       -16.2155747886        0.5002704943      -11.9785793151
 C       -14.0646089550        6.3453287069      -15.0680750692
 C       -15.3493722505        4.2887927748      -15.6361218287
 C        -8.2448476366        2.5496580484      -15.5588588106
 C        -9.1441046657        0.2881361584      -14.9312820426
 C        -9.2214359738        2.4215558774       -7.8416076201
 C        -7.3310739140        1.6750259279       -9.2431228554
 C       -10.9284142377       -3.9659419301      -12.1852360164
 C        -9.4380571940       -5.6227541324      -10.8987916957
 C        -3.1219525859       -3.3621940786      -13.0425038222
 C        -2.5300328884       -5.4362732910      -14.3014941374
 C         1.0204579184       -6.7690956143      -10.9572383765
 C        -0.0792771377       -7.9870943780       -9.0005359459
 C         4.6995771447       -2.2602087041       -6.7056787766
 C         4.7015835571       -1.8161286359       -9.3113762969
 C        11.1266823932       -0.7430586232      -10.3685591094
 C        11.5020262831       -2.4526417870      -12.3160545671
 C        13.7548649831       -7.0597988862       -6.9587659249
 C        12.3736689807       -8.6183115392       -8.4462442744
 C         9.3186277904       -5.7514382169       -2.4870678685
 C         8.4289035488       -3.8037989984       -3.8296563562
 H        11.3744016149       -4.0845036172       -2.0351636345
 H        12.8374508744       -3.8719814530       -3.0922316878
 H        12.1700492705       -5.5806241665       -2.8933432648
 H         8.2867707143       -7.9104357846       -5.0294570943
 H         9.8122967911       -7.7070800633       -4.1162542267
 H         9.2746525682       -7.3187979391       -7.1424760705
 H        10.1024134706       -8.7971249213       -6.6334601971
 H        13.9984296024       -5.3630077827       -9.0326263795
 H        12.9304691857       -4.1267482444       -8.1340452726
 H        11.9694608334       -5.0703090615      -10.8422738867
 H        13.3492657935       -3.7971031064      -10.7903028561
 H         7.8403001724       -1.0008542844      -10.2875145599
 H         8.9642141538       -1.4263283564       -9.1115947337
 H         8.0924946463       -3.9141402838       -9.1818527636
 H         6.7950819662       -3.3510148625      -10.0896488000
 H         2.9056269169       -3.6001468400       -8.1303381085
 H         3.2357335223       -4.7061569084       -6.9757659921
 H         3.4975610855       -6.6363774304       -8.5649755136
 H         2.9544047173       -5.7450899410       -9.9193921496
 H        -3.0023450681       -5.5969686179       -9.5380435115
 H        -1.9792283728       -7.1820772139       -9.5510393302
 H        -2.4420564648       -7.5058571940      -11.7192107674
 H        -1.3667310984       -6.2266533505      -12.0779243005
 H        -6.4377519930       -3.1452554783      -14.0458109084
 H        -5.6873673916       -3.2962403853      -12.4512873369
 H        -6.8234052631       -5.0947839769      -11.7199087612
 H        -7.5131539232       -5.5141076389      -13.4108693329
 H       -10.8938960623       -1.7730176268      -10.2635597690
 H        -9.5617096600       -1.4115480306      -11.4130328829
 H        -8.1407098061       -0.7161570975       -9.5445840021
 H        -9.3332646178       -0.7364793576       -8.4024254388
 H        -7.2919463870        3.4202402313      -11.3572224201
 H        -8.1424992086        4.8469482376      -11.1241716327
 H        -8.3281550509        4.1183851174      -13.4450592118
 H       -10.0192902912        4.1331978895      -12.6301820850
 H       -11.2045572310        1.4073384698      -17.0295931912
 H       -10.5952749940        2.9948106928      -16.8027387621
 H       -13.4172028773        2.1980520036      -16.0372145622
 H       -13.0368670379        2.9586818293      -17.5294900328
 H       -15.7429027755        4.3604143216      -12.9449963077
 H       -14.8519494692        5.8049006973      -12.4792800218
 H       -15.4805578406        4.3883458630      -10.6963363927
 H       -13.7626210457        4.4297950516      -10.7567462326
 H       -17.1484420427        3.3081789561       -8.8169869266
 H       -15.4829323896        3.2164446354       -8.9259065635
 H       -15.2220656833        1.7665995820       -6.8137994071
 H       -16.9925711703        1.5558526021       -6.8571549350
 H       -16.8596718656        7.2110374547       -5.7889416105
 H       -18.0089437961        6.4255606979       -6.7833077293
 H       -16.9566161259        7.6551808576       -7.4675589313
 H       -15.2588143537        6.3674691084       -4.7832387597
 H       -14.9901242422        4.7946450595       -4.0735535273
 H       -16.7284660649        5.3069091392       -4.4311953129
 H       -14.1144615431        4.1116629295       -7.6217969838
 H       -13.7194259670        3.4415516134       -5.8715676792
 H       -13.5062114633        5.1620122391       -6.2273595171
 H       -18.3243144802        2.1545178149      -11.4576993811
 H       -17.3732792442        3.1463449071      -12.6012221267
 H       -17.5210692034        3.5022343059      -10.8871056032
 H       -16.9740822154       -0.1287821421      -11.5865200629
 H       -15.2506280526       -0.0221273822      -11.7209615906
 H       -16.4534262790        0.7553849129      -12.9895945944
 H       -15.0711067010        6.6555793401      -14.8938512218
 H       -13.6000517951        6.7266446458      -15.9644047980
 H       -13.4861604693        6.7111445030      -14.2245722025
 H       -15.7287262215        3.4316168749      -15.0999487951
 H       -15.4265850856        4.3393212782      -16.7630631414
 H       -16.1591338455        4.9942092107      -15.3549845230
 H        -7.2546976952        2.1662036687      -15.3726887136
 H        -8.1912797992        3.5596037894      -15.4955228508
 H        -8.3989008106        2.3652565727      -16.6031284732
 H        -8.2593252991       -0.1302149427      -14.5294525106
 H        -9.1765679179        0.0111167727      -15.9971693621
 H        -9.8870816618       -0.2450829633      -14.3016922882
 H       -10.2740181765        2.7474172932       -7.5593690918
 H        -8.5295399653        3.1892713906       -7.5104246625
 H        -8.9709730226        1.4918427288       -7.3220158224
 H        -7.2690805178        0.9404601254       -8.4223816614
 H        -6.7060309385        2.5299886136       -9.0944004413
 H        -7.0119873992        1.2457148939      -10.1910588360
 H       -11.0162876401       -3.0083380408      -12.7910174435
 H       -11.7441396142       -4.0169466724      -11.5028682285
 H       -11.0289905490       -4.6423666779      -13.0673998398
 H       -10.2200393758       -5.9402371140      -10.2038339740
 H        -8.5063321582       -5.6647484591      -10.2948503365
 H        -9.4561403861       -6.2846370632      -11.8049079063
 H        -2.7699844413       -2.9299912897      -14.0103734954
 H        -2.2409362374       -3.3770528232      -12.4081024349
 H        -3.9124235840       -2.7211677619      -12.5864492512
 H        -1.4743140863       -5.3577255748      -13.9717458072
 H        -2.5470947596       -4.8476272594      -15.2406306789
 H        -2.6959212954       -6.5582136207      -14.3603473782
 H         1.4173610725       -5.7765107921      -11.3760728944
 H         0.2074826745       -7.1440204821      -11.5968214575
 H         1.7856585885       -7.5241696190      -10.9843647423
 H        -0.7337705035       -7.7244585063       -8.1563627473
 H         0.7623905696       -8.6125156573       -8.6745299138
 H        -0.5140962314       -8.6091566242       -9.8224946574
 H         5.2130872372       -2.7492240882       -5.9063050293
 H         3.5927470574       -2.5934532115       -6.5616846187
 H         4.8008482379       -1.1961026417       -6.5607220095
 H         3.6395141370       -1.7435220072       -9.4317978949
 H         5.0577379928       -2.2085744702      -10.3274622707
 H         5.0996774499       -0.8726878499       -9.0900818877
 H        10.5506356210        0.0221398116      -10.9028403474
 H        12.1766726975       -0.5245053120      -10.4210270316
 H        10.7151359841       -0.7903499204       -9.3485298553
 H        10.9740361287       -1.7924286357      -13.0182884212
 H        11.2356004072       -3.4710905112      -12.5534798636
 H        12.5824747982       -2.3561399042      -12.2356746316
 H        14.5344480030       -7.0310022465       -7.6916901188
 H        13.9062823279       -7.9205162344       -6.2621092468
 H        13.8035422689       -6.1292602816       -6.3093977660
 H        12.8619803791       -9.3499555735       -7.7939750223
 H        12.8636099040       -8.5443887544       -9.4662265491
 H        11.3347551537       -8.8843184725       -8.7031017938
 H         9.5983154313       -5.1157618964       -1.6561680122
 H         9.9908401001       -6.6161296388       -2.4429994154
 H         8.3212261986       -6.0205813922       -2.2260210793
 H         8.6697804287       -2.9880168989       -3.1927572717
 H         7.5354400168       -4.1907564616       -3.3828783685
 H         8.2771219511       -3.3773280558       -4.8402028433
 Na        9.6584287618       -3.2257482846       -6.9214868251
 Na      -11.7771373034        2.8552388669      -11.4035941132
