232

 C        12.1252601130       -4.7455100998       -3.3857716614
 C        10.8647915464       -4.3047259326       -4.0717388462
 O        10.8698940809       -3.2766064146       -4.8412183023
 C         9.5192399165       -4.9972129286       -3.7881625971
 C         9.0859116438       -5.7733294373       -5.0282527653
 O         8.8489125498       -5.1240391014       -6.0554983281
 C         9.1294294469       -7.3149983573       -5.2281706277
 C        10.0286873901       -7.7067669372       -6.4185743393
 C        11.4036761601       -7.0247024723       -6.3878228693
 O        11.6439906881       -6.1636631063       -5.6294697791
 C        12.3312104101       -7.4289013342       -7.5973901540
 C        11.8548076636       -6.3137376440       -8.7597126976
 O        10.7516751524       -6.3398774167       -9.2199861303
 C        12.8607761370       -5.2707523778       -9.1306875488
 C        12.4090791857       -4.1617888931      -10.1488449886
 C        11.4541044194       -2.9743472421       -9.7409120093
 O        10.9774618890       -2.9545439078       -8.6324311808
 C        11.1386922600       -1.9040334310      -10.9231545387
 C         9.5372682848       -2.2000415118      -11.0046214688
 O         9.0595285808       -2.7526839069      -11.9892193883
 C         8.6438839478       -1.7676995951       -9.7533840057
 C         7.3514544309       -2.5507031360       -9.5741628821
 C         6.7168134227       -2.5207740324       -8.1769341771
 O         7.3601266818       -2.4691020197       -7.1696617063
 C         5.1621742093       -2.5906683617       -8.0077447320
 C         4.8562729614       -4.3040083973       -8.2675175610
 O         5.8048234776       -4.9157765478       -8.7063470255
 C         3.3800307429       -4.8496876671       -7.9501890332
 C         2.8896650587       -5.8421286472       -8.8735855222
 C         1.4411714540       -6.2341395907       -8.5167001486
 O         0.9868563282       -5.8319643069       -7.4791365610
 C         0.4639071360       -6.9139618217       -9.5686906367
 C        -0.6933568559       -5.7348320766       -9.8401754393
 O        -0.1976362327       -4.6382325360       -9.9185018391
 C        -2.2218178777       -6.0326785307       -9.9565843862
 C        -2.5129715053       -6.3159202344      -11.4927749802
 C        -3.7808111214       -5.6344045829      -12.0183808287
 O        -4.7588182823       -5.5218485782      -11.3236369331
 C        -3.5557125569       -4.7959879111      -13.3513377680
 C        -5.0047155841       -4.8730884699      -14.0494804310
 O        -5.3159034423       -5.7287574380      -14.8605424146
 C        -6.2156141779       -3.9547089478      -13.6215989361
 C        -7.3154082701       -4.6468140828      -12.8052276961
 C        -8.4870209196       -3.7811357177      -12.4013080975
 O        -8.7049145172       -2.7727412851      -13.0906108828
 C        -9.4279741420       -4.1196794108      -11.1534008780
 C        -9.1670316242       -2.9051957257      -10.0864081576
 O        -8.8287724918       -3.2009215711       -8.9806886073
 C        -9.4306734082       -1.4840286934      -10.5881433233
 C        -9.4299997266       -0.4262212708       -9.4694494943
 C        -9.7255320264        0.9036717637       -9.9085286985
 O       -10.6594330999        1.0696956837      -10.6869576091
 C        -8.8100176599        2.0253290538       -9.3479601443
 C        -9.3438450422        3.3318311215      -10.0230138383
 O       -10.5189435593        3.6549956285       -9.8459809594
 C        -8.5124307989        4.0307257557      -11.2717587915
 C        -9.1441757957        3.6265742619      -12.6657480952
 C        -8.9309424211        2.1996504840      -13.1011443991
 O        -8.4236940764        1.3402292485      -12.3500039529
 C        -9.3848912942        1.8225713689      -14.5706280995
 C       -10.8848229540        2.1252528066      -14.7161098616
 O       -11.7428405916        2.1522743141      -13.8584492728
 C       -11.3503867086        2.2954829938      -16.2180143859
 C       -12.7925320886        2.7764119106      -16.3294139612
 C       -12.8716059518        4.3118932327      -16.1088856787
 O       -12.2465252678        5.1100183951      -16.7829573751
 C       -14.1102555742        4.8122730906      -15.1110599389
 C       -13.7557116002        4.6477494954      -13.5419512836
 O       -12.5887632288        4.4916367522      -13.2546820016
 C       -14.9081376588        4.7421137036      -12.5343500683
 C       -14.5981354133        4.0029785613      -11.2518559168
 C       -14.7919385701        2.4752965875      -11.3180580757
 O       -13.8018602092        1.7539785415      -11.2887524560
 C       -16.2617474650        1.8831409067      -11.1892869751
 C       -16.4910285032        1.5031655818       -9.6291478437
 O       -16.2758637601        0.3409461806       -9.3587875966
 C       -16.8834898746        2.5111555242       -8.4713124390
 C       -16.0423059921        2.0582971914       -7.2075739349
 C       -16.2133174490        3.2590880686       -6.0596988730
 O       -17.1398665019        3.2969862860       -5.3135722286
 C       -15.1075807775        4.4660681711       -6.0791921723
 C       -15.8271735069        5.5176450861       -7.1049691232
 O       -15.5098711573        5.3983236188       -8.2686447692
 C       -16.8975496544        6.4822038139       -6.5293783703
 C       -15.1740891629        4.9501611079       -4.5970556210
 C       -13.6169329941        4.1682013853       -6.5778118170
 C       -17.5507059515        2.6220669789      -11.6664541216
 C       -16.1506528161        0.5841666881      -12.0222306575
 C       -14.3009272017        6.3503507996      -15.4407782600
 C       -15.4539663439        4.0853868914      -15.4902749644
 C        -8.5423350670        2.5560382732      -15.6385192141
 C        -9.2842280576        0.2747218591      -14.7242253430
 C        -9.2390731570        1.9856191421       -7.8776337476
 C        -7.2354328977        1.7415145485       -9.4838800591
 C       -10.9467421012       -4.0213762032      -11.6069131472
 C        -9.0889153575       -5.5093088546      -10.5259315731
 C        -2.8810898210       -3.4859664797      -12.8356541963
 C        -2.5689720196       -5.5620264492      -14.3638374557
 C         1.0740580574       -7.0495125920      -10.9693540076
 C        -0.1975920900       -8.2102093597       -8.9781414114
 C         4.8054014588       -2.1868102188       -6.5007644141
 C         4.3311531951       -1.8265526846       -9.0785471131
 C        11.6025542255       -0.4651208442      -10.5298153708
 C        11.6531558309       -2.3551523444      -12.3346501827
 C        13.8114681972       -7.2616524553       -7.2117470956
 C        11.9903245195       -8.8077569005       -8.2433268822
 C         9.5339741488       -5.9792971552       -2.5727152535
 C         8.4929398663       -3.9192194396       -3.4260808404
 H        12.6607815149       -3.8286388385       -3.2169665637
 H        12.8017137645       -5.3113444632       -3.9873690292
 H        11.8615582753       -5.2400208999       -2.4911691870
 H         8.0635613362       -7.5664841845       -5.5353340449
 H         9.5564988206       -7.8414804710       -4.3938265781
 H         9.6831861503       -7.4607268790       -7.4374629290
 H        10.2066149751       -8.7660890692       -6.3259257986
 H        13.6242031639       -5.8110545174       -9.6285779507
 H        13.2781205854       -4.6826037193       -8.2690954087
 H        11.9745062757       -4.7420117515      -10.9003125810
 H        13.3717977864       -3.6673781395      -10.3220198538
 H         8.3508149486       -0.6910903277      -10.0915566669
 H         9.2658188679       -1.6544191668       -8.7873337577
 H         7.6490756197       -3.5998830230       -9.7018950064
 H         6.6040493823       -2.3395623845      -10.3806991638
 H         2.8525390732       -3.8717393868       -7.8899264018
 H         3.3613225306       -5.1508477791       -6.9066224655
 H         3.5160637403       -6.7553706943       -8.8371570473
 H         2.8999881766       -5.5824821394       -9.9132594126
 H        -2.6950661674       -5.1263550100       -9.6086066915
 H        -2.3111608146       -6.9002599239       -9.3861190276
 H        -2.6623353082       -7.5053512895      -11.4836703736
 H        -1.5911955231       -6.2190389357      -12.0141527250
 H        -6.5853739363       -3.5906546011      -14.6570528518
 H        -5.9525677711       -2.9626709954      -13.2215146007
 H        -6.8602895307       -4.9888198988      -11.8544902631
 H        -7.7382339180       -5.4189870289      -13.4443728245
 H       -10.3905590286       -1.5396614114      -11.0221911970
 H        -8.6126138891       -1.3306781393      -11.3724214434
 H        -8.4574496432       -0.4432438996       -8.8684549472
 H       -10.1087231232       -0.7351050181       -8.7233377459
 H        -7.3802412008        3.9366325206      -11.3207991572
 H        -8.7369051987        5.1020098121      -11.1426624192
 H        -8.7611985013        4.2956594272      -13.3811703154
 H       -10.2680131129        3.7745802517      -12.6790686110
 H       -11.2651849330        1.2470200747      -16.6841193600
 H       -10.6881785422        2.8392280045      -16.7915839469
 H       -13.3008039909        2.2261128925      -15.4626588731
 H       -13.3109544176        2.4732423610      -17.2492823928
 H       -15.8535786934        4.3432757004      -12.9698352158
 H       -15.0287625326        5.6951564532      -12.1746383876
 H       -15.2695004900        4.4149531916      -10.4186835841
 H       -13.5979609573        4.3624253783      -10.9034924039
 H       -17.9960041795        2.5780526196       -8.3608201674
 H       -16.5704612132        3.4860898306       -8.8126238256
 H       -15.0164978047        2.1049954421       -7.5309598733
 H       -16.4255192378        1.1040635540       -6.7196915487
 H       -16.4070756307        7.3789082338       -6.1959757400
 H       -17.4762780384        6.1168156736       -5.6157225258
 H       -17.5292912632        6.7478591269       -7.4119037628
 H       -14.4184027051        5.7069338925       -4.5543949838
 H       -14.9862388128        4.1151285398       -3.9080903961
 H       -16.1869224791        5.4075245980       -4.2821225358
 H       -13.7025426294        3.7835145520       -7.6490116851
 H       -13.1709524529        3.3663965392       -6.0249528698
 H       -13.1034235869        5.0472912707       -6.4637756364
 H       -18.4555044149        1.9878094194      -11.4843632714
 H       -17.5021493419        2.9087530318      -12.7334236800
 H       -17.5784574718        3.5564909790      -11.0761467222
 H       -17.0829533785        0.0545021449      -11.9234393105
 H       -15.3281002493        0.0200736156      -11.5212893841
 H       -15.9244235292        0.8228696092      -13.0671666323
 H       -14.9621630619        6.7364811769      -14.6446360523
 H       -14.6607781362        6.5146640454      -16.4824205917
 H       -13.3759967979        6.8872841939      -15.2513290791
 H       -15.3753556898        3.2692572984      -16.2345521959
 H       -16.1141102298        4.8439340019      -15.8641208308
 H       -15.9071397475        3.6016120217      -14.6254749410
 H        -7.4690422284        2.6673542544      -15.2743071371
 H        -8.8795586872        3.4937201703      -15.8871931871
 H        -8.6056839455        2.2164289479      -16.7327961266
 H        -8.3669745268       -0.1528535791      -14.4677154748
 H        -9.4101618349        0.0020075703      -15.7912155919
 H       -10.0673549838       -0.2961520630      -14.1385152389
 H       -10.2768758801        1.6997058193       -7.6408198033
 H        -8.9765498784        2.9691909830       -7.4190416420
 H        -8.6370519569        1.2452844063       -7.3580644237
 H        -7.0131626962        0.9877568200       -8.7533750301
 H        -6.5893323569        2.6388269080       -9.1455297089
 H        -6.9828043133        1.4573843312      -10.4916411842
 H       -11.1072219047       -3.1458839380      -12.2678169084
 H       -11.6248417972       -3.8780230529      -10.8259223303
 H       -11.2563611934       -4.8686605930      -12.1961520119
 H        -9.3700266140       -5.4899869162       -9.4835977046
 H        -8.0262722262       -5.6396898785      -10.4277216946
 H        -9.6022787324       -6.2863440386      -11.0194504473
 H        -2.9843298670       -2.7237010573      -13.5602499787
 H        -1.8556917798       -3.6385461655      -12.4893594001
 H        -3.4289975605       -3.1575082516      -11.9697584681
 H        -1.5504823518       -5.6862057200      -14.0753226755
 H        -2.6009652803       -5.2057980436      -15.3324830667
 H        -3.0894536055       -6.5462103887      -14.4203674869
 H         1.2986209643       -6.1028616901      -11.4199157912
 H         0.4181251761       -7.6638226610      -11.5494748404
 H         1.9014471603       -7.7360319328      -10.9185824023
 H        -0.4158167996       -8.0578500107       -7.9248821567
 H         0.4884726076       -9.0108764481       -9.1509877852
 H        -1.0753924407       -8.3811787432       -9.5650430554
 H         5.1649430506       -2.8981895204       -5.8225284796
 H         3.7057869362       -2.0421737957       -6.4385017681
 H         5.2987391361       -1.2892923820       -6.1618106910
 H         3.3009597977       -2.1459347310       -8.8752301236
 H         4.5242694509       -2.2690266507      -10.0740122319
 H         4.3561249101       -0.7572466052       -9.1311063808
 H        11.3110293132        0.3089029044      -11.2420721522
 H        12.7036599730       -0.6226281727      -10.3868924589
 H        11.1737119135       -0.2082067506       -9.5653573081
 H        11.2314823445       -1.6683494305      -13.0792046034
 H        11.2000754538       -3.3417434239      -12.4171969093
 H        12.7373399219       -2.3287659293      -12.3185038574
 H        14.3486677308       -7.3329975723       -8.1225804673
 H        14.1316207106       -7.9840033352       -6.4575165435
 H        14.0333569762       -6.3346813539       -6.7307314900
 H        11.9045571210       -9.5953767489       -7.5368448541
 H        12.8430744954       -9.0570858070       -8.8592380272
 H        11.2090520630       -8.7375800788       -8.9325512377
 H         9.5171566122       -5.4981174066       -1.6275157168
 H        10.3333070619       -6.7646338265       -2.6500461985
 H         8.5371801436       -6.5304693796       -2.6179521994
 H         8.9894758558       -2.9472678761       -3.3000741967
 H         7.9623611827       -4.1667455822       -2.4833887130
 H         7.7195976037       -3.7481006469       -4.2095968462
 Na        9.6364134180       -3.1253792530       -6.7305815594
 Na      -11.7812955311        2.7168550704      -11.6775194283
