232

 C        12.2278402061       -4.6244573458       -3.3689581624
 C        10.9309767425       -4.2500538098       -4.0243120807
 O        10.8408372687       -3.2677936514       -4.7680386143
 C         9.5596030429       -5.0895390055       -3.8032319073
 C         9.1558074245       -5.7707349815       -5.1291722800
 O         8.7690044440       -5.0976800380       -6.0506544193
 C         9.1226585825       -7.3091446517       -5.1549868790
 C         9.9414953629       -7.7617026485       -6.4199789250
 C        11.3545298674       -7.0198024794       -6.5366310858
 O        11.7611989809       -6.2108204207       -5.6885026569
 C        12.2585950353       -7.4083429268       -7.7542997042
 C        11.7864341842       -6.3758090241       -8.8106501308
 O        10.7129096429       -6.4139939413       -9.3357764994
 C        12.9098123623       -5.2427480030       -9.0984762283
 C        12.4390794386       -4.1852919203      -10.2684620758
 C        11.5468363001       -3.0195809475       -9.7726749224
 O        11.0789995302       -2.9117955726       -8.6525496135
 C        11.1759256448       -2.0828974871      -10.8363297671
 C         9.5178696185       -2.0381988387      -10.9863884776
 O         9.0264093103       -2.5108779529      -11.9526896553
 C         8.6444754182       -1.5736175555       -9.7896537151
 C         7.2469079632       -2.3622279678       -9.6508555453
 C         6.7690477931       -2.3982518868       -8.2001506027
 O         7.4278219435       -2.3894382807       -7.2119007474
 C         5.1914388806       -2.7666724203       -7.9984145670
 C         4.8884144954       -4.1859676931       -8.2403119268
 O         5.6762021467       -4.9567369170       -8.7236463549
 C         3.4733141456       -4.7653996057       -7.9084409474
 C         2.8839026469       -5.7493437492       -9.0118420890
 C         1.3591613461       -6.1605381321       -8.4986581974
 O         0.9116629120       -5.7687582955       -7.4542459877
 C         0.4544117191       -6.9677058715       -9.5787372081
 C        -0.5543412161       -5.8022257814       -9.8263205239
 O        -0.0841459379       -4.7272715544      -10.0774501109
 C        -2.0528709678       -5.9529096692       -9.9745647221
 C        -2.5656619942       -6.4295163062      -11.4581047014
 C        -3.7560797199       -5.5692941189      -11.8886272952
 O        -4.8287342394       -5.3683513905      -11.3472810143
 C        -3.7098422928       -4.9497418023      -13.3586347837
 C        -5.0823198225       -4.8398937620      -14.0417086753
 O        -5.2796909799       -5.6581806459      -14.8619630950
 C        -6.2973761739       -3.9433838186      -13.5883274242
 C        -7.2788806929       -4.7418071700      -12.7658396080
 C        -8.5054523202       -3.7971411152      -12.4526864400
 O        -8.8063824558       -2.8330812332      -13.1351714298
 C        -9.2296316246       -4.0444748812      -11.1616613605
 C        -9.1055645432       -2.9166518929      -10.1202390741
 O        -8.8824691717       -3.1119357936       -8.9281349091
 C        -9.3250451633       -1.4659315547      -10.6079070156
 C        -9.4351864006       -0.4748933535       -9.4215924327
 C        -9.7524276560        0.8680622142      -10.0135036255
 O       -10.6887410107        1.0840021013      -10.7368707045
 C        -8.8214099456        2.1025229622       -9.3722022762
 C        -9.3494259175        3.3112729367      -10.1145379254
 O       -10.5041173106        3.6380168113       -9.8363407241
 C        -8.6673189991        4.0994305742      -11.2496990226
 C        -9.0921082214        3.7823401034      -12.6751085796
 C        -8.9382569957        2.2200648067      -13.0464284088
 O        -8.5212630155        1.3887441105      -12.3254080381
 C        -9.4056234408        1.8412633205      -14.5284010746
 C       -10.8739735135        2.1842264446      -14.7496383107
 O       -11.6404731512        2.1126116025      -13.8578117679
 C       -11.4301238527        2.2990527323      -16.1351233124
 C       -12.8978117265        2.7233157199      -16.0771369119
 C       -13.1227982668        4.2600766323      -16.0440342689
 O       -12.3461609982        4.9693689430      -16.6208250629
 C       -14.2104665645        4.8984298711      -15.1590144179
 C       -13.7373620601        4.6883747117      -13.6736022805
 O       -12.6111679012        4.5986527026      -13.2590844914
 C       -14.9086219143        4.7590699241      -12.6591322153
 C       -14.6270633152        4.1035082280      -11.2524262811
 C       -14.9189347420        2.5705160139      -11.2234204266
 O       -13.9808548406        1.7840238909      -11.3271921921
 C       -16.2817955416        1.8977497945      -11.1052108913
 C       -16.4012323145        1.4653611796       -9.5862326643
 O       -16.1716762538        0.3114448767       -9.3224052616
 C       -16.9531143986        2.3940801490       -8.4703905221
 C       -16.0436289767        2.0693148574       -7.2394162057
 C       -16.0954878533        3.1757183894       -6.1851708614
 O       -17.0813017196        3.3208807287       -5.4915136256
 C       -15.0499904091        4.3080938540       -6.0683026089
 C       -15.7707687386        5.3792465655       -7.0203020407
 O       -15.3672176202        5.4055640112       -8.1619937303
 C       -16.7900559251        6.3064661197       -6.5538245660
 C       -14.8832405393        4.8888578306       -4.6653367696
 C       -13.6943039639        4.0568361084       -6.5654330669
 C       -17.4964882471        2.6791604164      -11.6688557997
 C       -16.2459905174        0.5520567312      -11.9712167259
 C       -14.4076280377        6.4200848593      -15.5392541813
 C       -15.4860339260        4.0520284293      -15.4770158679
 C        -8.4231775594        2.4705629613      -15.4572216934
 C        -9.3065932858        0.2958720562      -14.7586342280
 C        -9.2185469156        2.0915686841       -7.8171805893
 C        -7.3055929923        1.8930873823       -9.5020613006
 C       -10.7746744240       -4.0586462354      -11.3876745791
 C        -8.9096985151       -5.3926850404      -10.5229524045
 C        -3.1213430788       -3.5181704983      -12.9158583377
 C        -2.7300314939       -5.6517655351      -14.3789526692
 C         1.0703597317       -7.2462823706      -10.9577500934
 C        -0.1534809736       -8.3161134591       -9.0117535065
 C         4.8581266842       -2.2600000215       -6.5410699600
 C         4.2871322732       -1.9699698975       -8.9483377834
 C        11.5029668653       -0.5841826883      -10.4628906860
 C        11.8922056318       -2.3445787191      -12.1890356127
 C        13.6658727329       -7.3811010461       -7.2882849055
 C        11.9861040457       -8.8880240558       -8.1102000687
 C         9.6342799254       -6.1765524108       -2.5986005085
 C         8.4672047387       -3.9323797628       -3.4851489501
 H        12.9370871068       -3.7451208238       -3.5998200927
 H        12.7375883243       -5.5340620614       -3.7695436692
 H        11.9686219316       -4.7302886006       -2.2929567048
 H         8.1279507965       -7.5303389323       -5.3517296751
 H         9.6633256273       -7.7515827616       -4.2647369146
 H         9.5080044938       -7.4223334092       -7.3634566661
 H        10.0593128492       -8.7961855950       -6.3804136459
 H        13.8555007542       -5.7662522408       -9.3784263009
 H        13.0569552122       -4.5921843712       -8.2102774657
 H        11.8433254499       -4.7835576788      -10.8779479137
 H        13.3466631845       -3.7196362734      -10.6418930530
 H         8.3990358479       -0.4733593423       -9.7504634560
 H         9.2932810143       -1.7855122304       -8.9018641736
 H         7.4002119738       -3.4554988712       -9.8553381511
 H         6.4932905018       -1.9967676015      -10.2974824398
 H         2.8838417467       -3.8885964517       -7.7118112629
 H         3.5750495480       -5.2445214185       -6.9494546901
 H         3.4875560361       -6.6312956535       -9.1837663594
 H         2.7732817161       -5.2958774375      -10.0221347137
 H        -2.3429858704       -4.9655420902       -9.8333982437
 H        -2.2788884839       -6.6852362081       -9.1611478358
 H        -2.5682204174       -7.4623033672      -11.4954783714
 H        -1.6672760061       -6.1507728428      -12.1109377942
 H        -6.7576878181       -3.4309935726      -14.5295183404
 H        -5.9172820740       -2.9962377928      -13.0482517132
 H        -6.8286155368       -4.9858988123      -11.8217927054
 H        -7.5729188686       -5.6104092736      -13.3831588249
 H       -10.1621741750       -1.3535487391      -11.2632398724
 H        -8.3927394840       -1.3084376370      -11.1499920072
 H        -8.6531747702       -0.5732534065       -8.7142274253
 H       -10.3491514400       -0.7229239012       -8.8845460368
 H        -7.5664210667        4.0306607622      -11.1860480162
 H        -8.9757235310        5.2041252526      -11.0838463622
 H        -8.5025417785        4.4618123913      -13.2855099969
 H       -10.1675387626        4.1012806050      -12.8864632227
 H       -11.2714772547        1.3629433228      -16.6617901780
 H       -10.8916292977        3.0190267694      -16.7610062126
 H       -13.4253944920        2.1621285750      -15.3405051846
 H       -13.3039169629        2.4226506745      -17.0904205642
 H       -15.7514164460        4.3079874684      -13.0717609896
 H       -15.0696704707        5.7832814337      -12.3336770151
 H       -15.1282983710        4.6418188916      -10.4795726714
 H       -13.5461472371        4.3549187803      -10.9753940900
 H       -17.9407058137        1.8984812939       -8.2798827773
 H       -17.2080198128        3.4358301970       -8.7437107938
 H       -15.0200172304        2.0446425925       -7.5866259266
 H       -16.3941174756        1.2454387841       -6.6822155589
 H       -16.1681148320        7.2369550358       -6.3003534041
 H       -17.1860786757        6.0263734081       -5.5995522097
 H       -17.4846202721        6.5733620588       -7.3048159164
 H       -14.2186460053        5.7182583765       -4.8127816300
 H       -14.4463892572        4.1180616330       -4.0101888306
 H       -15.8294417097        5.2270155660       -4.1567810078
 H       -13.7056034693        3.5459842124       -7.5692833385
 H       -13.1074441040        3.4405516895       -5.8882958947
 H       -13.3068956915        5.0655404893       -6.6135243573
 H       -18.3910455747        1.9740218203      -11.6376717673
 H       -17.3454492736        2.9956767843      -12.7404345417
 H       -17.6427257867        3.6129294624      -11.0724183616
 H       -17.2702604374        0.2172840298      -11.9539315054
 H       -15.5378290934       -0.1905375525      -11.4765706945
 H       -15.8957847749        0.7834334528      -13.0000600196
 H       -14.7812804432        6.9720439145      -14.7117563944
 H       -15.1219572174        6.3301682602      -16.3357977906
 H       -13.5245383130        6.9475602002      -15.8949106505
 H       -15.5603461215        3.8569897144      -16.5519687924
 H       -16.3639054933        4.7482064252      -15.3128580081
 H       -15.5382959451        3.1482868515      -14.8208243913
 H        -7.4384493110        2.1938114368      -15.2076766710
 H        -8.4752509570        3.5258867799      -15.6275245320
 H        -8.6750379703        2.2444351159      -16.4095114088
 H        -8.2444106976       -0.0490575186      -14.8544327609
 H        -9.7480445137       -0.0456716681      -15.7308567535
 H        -9.7738873650       -0.2996094693      -13.9645318155
 H       -10.3353838232        2.1430725818       -7.5937654312
 H        -8.6358476940        2.7866837271       -7.2580762453
 H        -8.8902546071        1.0612959456       -7.4728826479
 H        -7.0166016677        0.9758655734       -8.9033470794
 H        -6.7142324147        2.6645418646       -9.0758696281
 H        -7.1424143025        1.7327980015      -10.5957615954
 H       -11.2622144959       -3.1642498787      -11.8325357097
 H       -11.2867975531       -4.2000099863      -10.4697501829
 H       -11.0323606665       -4.9495443215      -11.9983051661
 H        -9.5567405951       -5.5061083093       -9.6729769820
 H        -7.8934113827       -5.5004082963      -10.1377363810
 H        -9.2204688066       -6.1937064252      -11.2853899676
 H        -3.2878952815       -2.7744104666      -13.7146431545
 H        -2.1194501405       -3.5934052046      -12.5922277202
 H        -3.6960040054       -3.1484753672      -12.0634342695
 H        -1.7506388606       -5.8744821576      -13.9533521485
 H        -2.6004212549       -5.0194873792      -15.3424489349
 H        -3.2333076115       -6.5319920707      -14.7825537933
 H         1.6558799106       -6.3784909155      -11.4027124092
 H         0.2852189445       -7.5130854227      -11.6071172602
 H         1.5412641307       -8.1617201030      -10.9190872986
 H        -0.5113538411       -8.2445394667       -8.0144444271
 H         0.7134406391       -8.9421354047       -9.0754036877
 H        -0.9405376762       -8.6314930384       -9.7229738604
 H         5.2068866169       -2.8868068572       -5.7787381729
 H         3.7551006595       -2.0199993034       -6.4944595478
 H         5.3489081517       -1.3646494325       -6.3331495820
 H         3.2684409183       -2.1549734365       -8.8121777320
 H         4.5627132082       -2.2985599104       -9.9976598019
 H         4.4518864307       -0.9350713563       -8.9021398791
 H        11.0616958669        0.0691314077      -11.2807587477
 H        12.5730966253       -0.5731529710      -10.4078139364
 H        11.0602483474       -0.2354885001       -9.4505107623
 H        11.6146439881       -1.4908155344      -12.8447644708
 H        11.5712772135       -3.3029905766      -12.5662451954
 H        12.9544115611       -2.2031015046      -11.9509100178
 H        14.2506725419       -7.7111684484       -8.0925811436
 H        13.7158839123       -8.0671011232       -6.4536806886
 H        14.1050270178       -6.4597737163       -6.8424264552
 H        11.8854221636       -9.4497884238       -7.2276956472
 H        12.8723119481       -9.2936866705       -8.5759906324
 H        11.1697292248       -9.0509344301       -8.7927461529
 H         9.8944974050       -5.5611618006       -1.7151745248
 H        10.4678134816       -6.8566547407       -2.7821739445
 H         8.7525665560       -6.7728128394       -2.4018611746
 H         8.9945117074       -3.0262612298       -3.2077222227
 H         7.7631702853       -4.2038878828       -2.6886716453
 H         7.8289054377       -3.6540440890       -4.3863074730
 Na        9.5953806088       -2.9727900681       -6.6627129033
 Na      -11.7614368803        2.6564266985      -11.7501218799
