232

 C       -12.9222162407      -17.7872404896       -4.0921576794
 C       -13.8262013730      -16.6296312283       -4.5315885354
 O       -13.3547296465      -15.4994962168       -4.7067843982
 C       -15.4120319769      -16.8363747741       -4.5876893689
 C       -16.1313171989      -15.7744178480       -5.5123962450
 O       -16.1316548945      -14.6022716068       -5.2108939595
 C       -16.7799852292      -16.1871911540       -6.8365397675
 C       -17.0727504872      -14.9796548297       -7.7783971600
 C       -15.7465615898      -14.1225175478       -7.9227442236
 O       -14.6959700386      -14.3287509354       -7.4220385381
 C       -15.9529371608      -12.6732969915       -8.5724985499
 C       -16.0574817991      -11.7151469993       -7.3116264923
 O       -16.9552545735      -12.0006552801       -6.5221537360
 C       -15.2102957339      -10.4232186824       -7.2390353214
 C       -15.4834242932       -9.5496457420       -5.9554491198
 C       -14.3976562089       -9.9374503402       -4.9283212725
 O       -14.2139059571      -11.1369729060       -4.6579744187
 C       -13.4716830748       -8.7802067419       -4.4112329460
 C       -12.7269671114       -8.0207471982       -5.5654443860
 O       -12.7141028411       -8.4046435228       -6.7084602382
 C       -11.9942765268       -6.6757254471       -5.1072027578
 C       -11.7006223956       -5.7487180518       -6.3704921674
 C       -12.7951885626       -4.7693828253       -6.4563034432
 O       -13.9389031126       -5.1212699453       -6.0313348340
 C       -12.6071688355       -3.4663747390       -7.2504502899
 C       -11.7149792868       -2.4994266931       -6.3295933433
 O       -11.0457599287       -2.9244082237       -5.4179748446
 C       -11.6138379115       -1.0327665976       -6.7385778548
 C       -10.2899399603       -0.4136533032       -6.2432018022
 C       -10.2978640196        0.8527046744       -5.3689516992
 O       -10.9102809921        1.8409304330       -5.5969474783
 C        -9.0485921137        0.7677520143       -4.2674023272
 C        -7.8435559290        0.3109619817       -5.0663038998
 O        -7.6644990204       -0.7502411855       -5.5910596288
 C        -6.7577477069        1.4592683529       -5.3025843859
 C        -7.2772053104        2.3684281810       -6.5245586071
 C        -6.2621081205        3.5009464635       -6.7996422632
 O        -5.5218184826        4.0053637847       -5.9571808236
 C        -6.1285879355        3.9482447720       -8.3102045254
 C        -5.2358857026        2.9158329818       -8.8751091080
 O        -5.6018434892        1.7700655443       -8.9790706474
 C        -3.7512437722        3.2426024015       -9.3546053819
 C        -2.9765887001        1.9297679419       -9.6476156765
 C        -1.7975178898        2.2361465401      -10.6304431969
 O        -1.9648728626        2.8042314725      -11.7132630337
 C        -0.3613114823        2.0311082778      -10.0572360330
 C         0.7249797082        2.4323482826      -10.9796602205
 O         1.7156230808        1.7373242681      -11.2433743347
 C         0.6454754892        3.7514892269      -11.7349592178
 C         2.0458917759        4.3908195608      -11.7906736020
 C         2.1535041077        5.8129161857      -12.3776411235
 O         1.2136615567        6.6052960693      -12.4949173721
 C         3.5762641250        6.3688243744      -13.0057938302
 C         3.9330266268        5.2666888743      -14.0927528777
 O         5.0607157713        4.8663762539      -14.1126860407
 C         2.8222940687        4.7673592522      -15.0851081909
 C         3.0326488713        5.4284340418      -16.4785304042
 C         3.9928281541        4.5450224572      -17.3628911215
 O         4.1898806008        3.3906244927      -17.0520903984
 C         4.5163187524        5.0313159192      -18.6980709905
 C         6.1335118595        5.1529273370      -18.4501725483
 O         6.7647221582        4.6968781777      -19.3936441703
 C         6.8252175832        5.7416950749      -17.2930024988
 C         8.2910476056        5.2763845465      -17.0806342602
 C         8.3985470886        3.6957563895      -16.8657368510
 O         7.5461308093        3.1912798922      -16.2114265325
 C         9.6969210062        2.9009338895      -17.4147632946
 C        10.8832774657        3.1838819683      -16.4334090096
 O        11.0785087100        4.3912674416      -16.2631054827
 C        11.9265252856        2.1077826869      -16.1189048076
 C        12.5173284617        2.3272722128      -14.6326343307
 C        11.4379144735        2.3981190648      -13.5360879426
 O        10.4143572155        1.7101457295      -13.5563852406
 C        11.6380616108        3.2493612625      -12.2865790699
 C        10.5801343289        2.8150651766      -11.2141843683
 O        10.9097114292        2.5153422488      -10.0853466692
 C         9.0327129250        2.9481843124      -11.5218623450
 C         8.3605760584        1.6006851300      -11.5314844852
 C         7.1209318029        1.7146057667      -12.4445304180
 O         7.0637056987        2.6972724393      -13.1403097143
 C         5.9291826687        0.6255017172      -12.3568236155
 C         5.7680685185        0.0217344246      -13.7771092558
 O         5.3266966282        0.7666608062      -14.6666146410
 C         6.0532913665       -1.4500362391      -14.0545939889
 C         6.1364373307       -0.3962724793      -11.2261523592
 C         4.6448022055        1.3879012591      -11.9730889488
 C        13.0028748272        3.0943121137      -11.7255954566
 C        11.2749163037        4.7609657121      -12.5235946111
 C         9.3774954589        1.4363722262      -17.7377989532
 C        10.0823590165        3.7161113104      -18.6806303520
 C         4.4047062687        3.8320535667      -19.6189368218
 C         3.9559623068        6.5844889714      -18.9908646319
 C         3.3589863605        7.8089873565      -13.6463221330
 C         4.6900845583        6.6032491646      -12.0384318052
 C        -0.0638508920        3.1083342923       -8.9138529706
 C        -0.1118210486        0.5650016816       -9.6361824666
 C        -7.5904030951        3.9006525742       -9.0030138973
 C        -5.3991873456        5.3203520980       -8.4253414520
 C        -9.0095704068        2.2112689543       -3.6025534192
 C        -9.5827329871       -0.2753228637       -3.2834923669
 C       -11.8266890749       -3.7294260548       -8.6032719610
 C       -13.9294857106       -2.6831567953       -7.4761835667
 C       -14.3234227621       -7.7941093277       -3.5447841822
 C       -12.5358887981       -9.4771893999       -3.4554155675
 C       -14.6860394786      -12.3980874480       -9.3594208439
 C       -17.2226343273      -12.5674627026       -9.4149678499
 C       -15.7824532223      -18.2728733935       -5.0248806864
 C       -15.8227431254      -16.6431637511       -3.1187769091
 H       -12.3738853952      -18.1158954770       -4.9972400003
 H       -13.4612934229      -18.6783462379       -3.7585194816
 H       -12.2202776471      -17.5233626553       -3.3081444354
 H       -17.7523869541      -16.5509332224       -6.5319954236
 H       -16.2443306586      -16.9986762403       -7.3489023821
 H       -17.7463762586      -14.2641889334       -7.3000174074
 H       -17.5146847446      -15.2359180935       -8.7213555117
 H       -15.4868557695       -9.8281048565       -8.0757676640
 H       -14.1274466576      -10.6993911920       -7.4336491222
 H       -16.5030187725       -9.7856875485       -5.5999631365
 H       -15.4437395370       -8.5153984112       -6.1085007014
 H       -11.1091940655       -6.9549039819       -4.5241617777
 H       -12.5616385030       -6.1182163078       -4.3727830320
 H       -11.4219676324       -6.4010288007       -7.2221753063
 H       -10.7263959988       -5.3222112225       -6.2776082219
 H       -12.5372675701       -0.5217827915       -6.5798898044
 H       -11.6861476633       -0.8961314323       -7.7823134792
 H        -9.6380888783       -0.1437038147       -7.1051983332
 H        -9.7286005733       -1.2115215319       -5.7663861993
 H        -5.8385438099        0.8555868827       -5.6872991359
 H        -6.5384081872        1.9945103918       -4.3322131098
 H        -8.2715272316        2.7964884870       -6.3518948059
 H        -7.4153468629        1.5739973804       -7.2985864109
 H        -3.3009985405        3.8959451403       -8.6171555767
 H        -3.6840047674        3.7628700508      -10.3555092314
 H        -3.7331924209        1.1939034439      -10.0688487943
 H        -2.6455078002        1.4903042423       -8.6712091478
 H        -0.1887243282        4.4399674923      -11.4055125439
 H         0.3616468947        3.5262389838      -12.8022837611
 H         2.6484900614        3.6442938918      -12.3090266249
 H         2.4646062124        4.5135385629      -10.6919540476
 H         1.8342923461        5.0815934805      -14.8653623598
 H         2.8923397616        3.6351731122      -15.0979021985
 H         3.4164424856        6.4117631175      -16.4516119841
 H         2.0467285036        5.5675898013      -16.9411922233
 H         6.3767351490        5.5220188892      -16.3088055237
 H         6.7866020626        6.9044653170      -17.3249847800
 H         8.6348270235        5.6806538059      -16.1511964523
 H         8.9406700285        5.6412923633      -17.7390208867
 H        12.6713002697        2.1013647309      -16.8815163872
 H        11.5296996791        1.1468967777      -16.1662715983
 H        13.0188335681        3.3007606720      -14.4786122794
 H        13.2050136261        1.5306411312      -14.5037000766
 H         8.8290503088        3.2912596083      -12.5792653724
 H         8.4919756263        3.6734582634      -10.8662004573
 H         8.1874858548        0.9440251217      -10.6099002280
 H         8.9834432542        0.9589997895      -12.1276671155
 H         5.6095761958       -2.1562871605      -13.2877068886
 H         7.1650855288       -1.5772089516      -14.1067586850
 H         5.5668368077       -1.8029632740      -14.9394307717
 H         5.4067659670       -1.1862586052      -11.2749813749
 H         6.1881353094       -0.1324132160      -10.1430866139
 H         6.9902786689       -1.0863066490      -11.5019888702
 H         4.0072826402        1.5036497253      -12.8054501611
 H         4.8835544144        2.4278467450      -11.7179507524
 H         4.0773497121        0.9898297574      -11.1129213922
 H        13.7666301761        3.3859002203      -12.4486227462
 H        13.0736039130        2.0705123049      -11.4962047940
 H        13.1424121877        3.6362186921      -10.7907123520
 H        11.7749321252        5.1464616752      -13.4199465010
 H        11.5155779984        5.3496890279      -11.6321854856
 H        10.2123941105        4.9688698989      -12.6938112863
 H         9.3962777794        0.7770890147      -16.8347445787
 H        10.1013747027        1.1165044654      -18.5047678929
 H         8.4468940074        1.3652582055      -18.3579387702
 H        10.5944303439        4.5967334627      -18.3398699409
 H         9.2406422705        3.8306598783      -19.3835866392
 H        10.7872357425        3.1338582770      -19.1643815115
 H         4.9624050625        3.9330426819      -20.6169895624
 H         3.3673742564        3.7962334300      -19.8672111829
 H         4.6473526264        2.9294296288      -19.0673897771
 H         3.9047257761        6.7114569374      -20.0522364017
 H         4.6828374702        7.2772581662      -18.5372862134
 H         2.9510604077        6.7277686560      -18.6916095102
 H         3.5788888279        8.5359920994      -12.8140610162
 H         2.3693894303        8.0674659075      -13.9097258311
 H         4.0538792026        7.8473503321      -14.5120350836
 H         5.5274234962        7.0902177303      -12.3645647281
 H         5.0418230074        5.6570447537      -11.7283869502
 H         4.5651361330        7.2824533657      -11.1761927114
 H         0.9898600800        2.9425833213       -8.6441088973
 H        -0.6300220506        2.9399100545       -7.9352212157
 H        -0.0330525814        4.1159039705       -9.3550323298
 H        -0.2024689701        0.4209327175       -8.5110912860
 H         0.9086559834        0.3095822129       -9.8646193061
 H        -0.9222769655        0.0364588291      -10.1861699225
 H        -8.0063470177        2.9161780284       -9.0575257321
 H        -7.7159860226        4.4634048361       -9.9834870509
 H        -8.2647533299        4.5231218786       -8.3826974199
 H        -5.4872005923        5.6963567802       -9.4107298387
 H        -4.3238086911        5.2613259963       -8.1228605178
 H        -5.9662342389        6.0381202893       -7.8561843788
 H        -9.9918676222        2.4677318708       -3.3850841159
 H        -8.7133033614        3.0397968113       -4.1845641806
 H        -8.3309784037        2.2305560236       -2.7161499346
 H        -8.8788879812       -0.4266189646       -2.4703538838
 H        -9.6324617752       -1.2422776490       -3.6424235440
 H       -10.5624164664        0.0979012296       -3.1599514191
 H       -12.0636852697       -2.8700087095       -9.2422804884
 H       -12.3075123174       -4.6152064507       -9.0370694972
 H       -10.7654136637       -3.8671774943       -8.5557778877
 H       -14.7478324027       -3.2439778941       -8.0322727462
 H       -13.6755801918       -1.8416090671       -8.1376174920
 H       -14.3647833580       -2.3389737461       -6.5436547140
 H       -14.9486931696       -7.0843753124       -4.1510430826
 H       -13.7942070003       -7.0591812326       -2.9612740445
 H       -15.1436698251       -8.3184721871       -3.0103523436
 H       -12.2492641291      -10.3758215102       -3.9358850947
 H       -12.9685297653       -9.5982662076       -2.4249774637
 H       -11.6743740727       -8.8900800766       -3.2456017710
 H       -13.7710395861      -12.7876863125       -8.8450721838
 H       -14.5673325429      -11.2925271948       -9.5326473097
 H       -14.6032889077      -12.9436895228      -10.3399858788
 H       -17.7236503564      -13.5019512755       -9.6609364265
 H       -16.9994993815      -12.1863491626      -10.4327638006
 H       -17.9346975572      -11.9778856554       -8.9906879220
 H       -15.3928573401      -18.2599894139       -6.1027101912
 H       -16.8222466447      -18.6147926592       -5.1377541266
 H       -15.3010337213      -18.9993387747       -4.4471922685
 H       -15.5840942775      -15.6748211474       -2.6577413636
 H       -15.4200151675      -17.4047502930       -2.4745594105
 H       -16.9036623862      -16.7246228509       -3.1082369976
 Na      -14.2156981695      -13.4315450127       -5.2718685483
 Na        5.4495459066        3.0220455191      -15.2093007018
