232

 C       -12.9530307200      -15.8189717886       -2.7002838479
 C       -14.2596312414      -15.1487541119       -2.9567267272
 O       -14.5578661210      -13.9615229938       -2.9827003231
 C       -15.5509390898      -16.1111100402       -3.2960845660
 C       -15.7851442855      -15.8412914836       -4.8012491373
 O       -16.5245955617      -14.9670321301       -5.1082727301
 C       -15.1245654791      -16.5638699282       -5.9518343444
 C       -15.3950243956      -15.7724939119       -7.2578546289
 C       -14.6295604179      -14.5139928313       -7.3351289612
 O       -13.8580908905      -14.0834920514       -6.4027238039
 C       -14.9959172678      -13.4519676625       -8.6156685231
 C       -15.6470383682      -12.1289179642       -7.8941862980
 O       -16.5796534588      -12.2665861344       -7.1047214293
 C       -15.1291769783      -10.7264680442       -8.1286071201
 C       -15.5867893538       -9.6819648604       -7.0545116262
 C       -14.8776089122       -9.7017369896       -5.7213465377
 O       -14.6583312422      -10.7519742925       -5.1683839478
 C       -14.3344281382       -8.3769504905       -5.1216657985
 C       -13.2685438599       -7.6594321898       -6.1217820042
 O       -13.2587159617       -7.9753245467       -7.3001602330
 C       -12.1658128437       -6.7340021561       -5.5639220522
 C       -11.9343957159       -5.5156141659       -6.4425723532
 C       -12.9873293535       -4.4370524989       -6.1200426474
 O       -13.8591077306       -4.6195827985       -5.3145945717
 C       -12.8951694307       -3.0034701621       -6.9541400665
 C       -11.3744535126       -2.4110525206       -6.6930993202
 O       -10.8051826120       -2.7567437236       -5.7015261433
 C       -10.7686841285       -1.4132486055       -7.6992791428
 C        -9.5699403105       -0.8089172502       -7.1290730854
 C        -9.7863506855        0.6922196152       -6.5927055180
 O       -10.3237819235        1.5872428343       -7.3173120514
 C        -9.2643510361        1.1720689567       -5.2195916680
 C        -7.6970286999        1.0265619731       -5.1937661862
 O        -7.2240598014       -0.1302650029       -5.3431585353
 C        -6.7670646320        2.1897392446       -5.2232520875
 C        -6.7753105547        2.5273302711       -6.7725693366
 C        -5.8554189507        3.6006958545       -7.2739128480
 O        -4.9759483766        4.1110837985       -6.6261700849
 C        -6.0975867535        4.0330184793       -8.7938776558
 C        -5.2735465404        2.8969160886       -9.5894355862
 O        -5.7156711152        1.8031038068       -9.7419023592
 C        -3.7786572370        3.2142587542       -9.9993038359
 C        -2.7853969970        2.2333332536       -9.3525679849
 C        -1.3324839652        2.2379124101       -9.9983686091
 O        -1.3131121811        2.7894653316      -11.1299870656
 C         0.0878980240        1.7241605775       -9.2610595398
 C         1.4493581683        1.9569346340      -10.1468782703
 O         2.3197529632        1.1500511451      -10.3175772387
 C         1.4578919205        3.4112107976      -10.7166813546
 C         2.8027163994        3.9336427812      -11.1994356149
 C         2.6839172939        5.4330172019      -11.4729448751
 O         1.8546085132        6.0374539786      -10.8776278003
 C         3.4809748847        5.9865877568      -12.7332022841
 C         3.6518899834        4.8161249707      -13.7413215163
 O         4.7287895307        4.3028215371      -13.9497444636
 C         2.4087595341        4.3661354437      -14.5828466949
 C         2.2788430343        4.9991377862      -16.0060522039
 C         3.3827476077        4.4699935247      -16.9131870052
 O         3.7580618855        3.3377100542      -16.7763705824
 C         3.9315340091        5.2992953224      -18.1179133044
 C         5.4682281251        5.0356040832      -18.0588033955
 O         6.0388211646        4.4881329442      -19.0334076377
 C         6.2407961145        5.6658502612      -16.8307276353
 C         7.7355511774        5.5710967048      -17.0383890909
 C         8.1100171241        4.0242512167      -16.9991065405
 O         7.4662862158        3.0919609921      -16.4632734325
 C         9.4108225297        3.5959270048      -17.6410594696
 C        10.4080071343        3.5991590564      -16.4908444764
 O        10.3715378541        4.4279936400      -15.5561984776
 C        11.4796353619        2.5829875128      -16.5273168243
 C        12.2826272122        2.6920234431      -15.1679861772
 C        11.4588617020        2.1361710256      -13.9850177167
 O        10.6387162686        1.2755269434      -14.1000915822
 C        11.8394087347        2.5847041453      -12.4379106578
 C        10.5620274178        1.9898598295      -11.6040246939
 O        10.6628630146        0.9371816200      -11.0221094393
 C         9.1960894510        2.6563768674      -11.9230625792
 C         7.9282437316        1.7975573018      -11.5747379763
 C         7.0447195064        1.6149257786      -12.7065959996
 O         6.7989255262        2.5751773195      -13.4274617213
 C         6.1606453982        0.3313380794      -12.9917343265
 C         6.5798907676       -0.2706877780      -14.4697317263
 O         6.1595078686        0.3603863141      -15.4658860684
 C         7.3759600578       -1.5181158861      -14.5359232322
 C         6.4296441644       -0.7277070887      -11.8364752991
 C         4.6972325790        0.7572636399      -13.0166416922
 C        13.0255538405        1.6778694085      -11.9816196785
 C        12.2109268809        4.0527286974      -12.3212802302
 C         9.0898281034        2.1486369613      -18.1101942169
 C        10.0680763400        4.4479493349      -18.7755335508
 C         3.3559744471        4.7476526688      -19.3857229355
 C         3.6089131809        6.8093598515      -18.1207501198
 C         2.6493966095        7.1463490575      -13.3815083013
 C         4.9594395322        6.4506651455      -12.3141497474
 C         0.2002434639        2.5248474859       -7.9657421861
 C        -0.1254681908        0.1896522924       -8.9042702406
 C        -7.6589834854        3.7712249983       -9.2756667079
 C        -5.7639277856        5.5200798927       -8.9696427517
 C        -9.8434542352        2.6020812954       -4.8002737884
 C        -9.7829320541        0.1138929999       -4.1838648883
 C       -13.2005931900       -3.2813447724       -8.4921758671
 C       -14.0197098659       -2.1063359552       -6.3821251591
 C       -15.5209252818       -7.4082632905       -4.9397683662
 C       -13.5915451970       -8.6504863281       -3.7394470500
 C       -13.7499773696      -13.0832279446       -9.3254035281
 C       -16.0578599337      -13.9916423219       -9.5564895758
 C       -15.1796181938      -17.6539354024       -3.1075141664
 C       -16.7004062048      -15.7466060793       -2.3526640916
 H       -12.7191724616      -16.6311397348       -3.3458012308
 H       -12.9572829189      -16.2549215783       -1.7148416224
 H       -12.1595736977      -15.0602466762       -2.5949827105
 H       -15.4713850701      -17.6270300323       -6.0907367956
 H       -14.0266052741      -16.6351036417       -5.8085880863
 H       -16.5059421302      -15.6036415034       -7.2531576729
 H       -15.1286596121      -16.4479678376       -8.0874794189
 H       -15.3639427511      -10.3829234022       -9.0832373194
 H       -14.0451219068      -10.8572116780       -8.0615686423
 H       -16.6367717397       -9.9090496190       -6.8361249443
 H       -15.4677000007       -8.6699244294       -7.5032376060
 H       -11.2561918725       -7.2727744056       -5.4427035311
 H       -12.3973339839       -6.2835268009       -4.6171518870
 H       -11.9121921948       -5.8120582671       -7.5233435434
 H       -11.0992843437       -4.8787398690       -6.2442619824
 H       -11.6292547786       -0.8273265693       -7.9219713450
 H       -10.4604498818       -1.9673274514       -8.6036610117
 H        -8.8375517946       -0.7135410155       -7.9590109529
 H        -9.1416559954       -1.3836051059       -6.3268075357
 H        -5.7381825615        1.7473070473       -4.8881395427
 H        -7.1305550169        3.0936986491       -4.7900600109
 H        -7.8089503962        2.8084299644       -7.0011983484
 H        -6.5788565702        1.5930597888       -7.2675852014
 H        -3.4699588992        4.1650388734       -9.7223015393
 H        -3.6846189735        3.1242808979      -11.0644640487
 H        -3.2196928517        1.2323162593       -9.3780462608
 H        -2.6816284398        2.3624745317       -8.2759432999
 H         1.1868106967        3.9648239676       -9.8200087847
 H         0.6953873023        3.6671078069      -11.4761534240
 H         3.2365310597        3.5259513328      -12.0786494384
 H         3.6055947636        3.9734367552      -10.3448683784
 H         1.5562232625        4.6875223405      -14.0070137456
 H         2.4722436286        3.2943461973      -14.6558981734
 H         2.3346532776        6.1180281886      -15.9007013637
 H         1.2985995893        4.8108551270      -16.5570248468
 H         5.9410993504        5.0020915886      -16.0388861426
 H         5.7921143765        6.6680287672      -16.6854198167
 H         8.2990947092        6.1916687706      -16.3158069309
 H         7.8679807107        6.0215527047      -18.1769290124
 H        12.1796810580        2.7504176509      -17.3478343186
 H        10.8909844509        1.6829446136      -16.4160856294
 H        12.5554376643        3.7607937892      -14.9668413223
 H        13.1375508279        2.0221358658      -15.3058653185
 H         9.1391367049        2.8957050951      -12.9746472916
 H         9.1578007955        3.5154958454      -11.2914614881
 H         7.2822028810        2.2012176307      -10.8480985513
 H         8.3974785665        0.8172949598      -11.2839502464
 H         6.9076700408       -2.2660447146      -13.9275398132
 H         8.3862750779       -1.4296288846      -14.2370356019
 H         7.3984616257       -1.8396909732      -15.5636953486
 H         6.0315893791       -1.6830619247      -11.9976164457
 H         6.0469621239       -0.3044925772      -10.9079628936
 H         7.5234488626       -0.7716525093      -11.7262376198
 H         4.3841801442        1.0090757326      -11.9338770447
 H         4.0960705453       -0.0680929191      -13.4316077216
 H         4.7733836555        1.7347707658      -13.5173467969
 H        13.8706827797        1.9655289246      -12.6189442954
 H        12.7688858113        0.6975106180      -12.2360252127
 H        13.3025151805        1.8375024468      -10.9431506190
 H        13.0384892678        4.3070433918      -12.9971415201
 H        12.5260658540        4.3493938888      -11.3182838309
 H        11.3856522012        4.6857255782      -12.6841531459
 H         9.0439460847        1.4915092141      -17.2362992735
 H         9.7298390474        1.7081019863      -18.7980149194
 H         8.2336122441        2.1693005240      -18.7521773508
 H        10.3356339377        5.4338092284      -18.3707774372
 H         9.4502036569        4.5985306169      -19.6947852778
 H        10.9672852038        3.9481767222      -19.2124682735
 H         4.0074915533        3.8582087915      -19.6769895929
 H         3.2524190747        5.4435456637      -20.1643381492
 H         2.4244110020        4.2092634536      -19.1159167950
 H         4.0524289236        7.2972147859      -18.9920017478
 H         3.9559460224        7.3359816155      -17.2486525972
 H         2.5881002346        6.9829771750      -18.2874094586
 H         2.8363796585        8.1308348338      -12.9004016811
 H         1.6395048278        6.9340423949      -13.1882778762
 H         2.7823683792        7.1971194560      -14.4615143074
 H         5.5093373981        7.2314987913      -12.8212496351
 H         5.6033385252        5.6009247936      -12.3288195814
 H         5.1102946867        6.9540832927      -11.4020314543
 H         0.5558838717        2.0258651558       -7.1230260584
 H        -0.8646829933        2.8293158819       -7.7287263488
 H         0.7795667141        3.3580309473       -8.0607962780
 H        -1.0148276842       -0.0448895945       -8.2461076003
 H         0.7255492967       -0.1770283145       -8.4166352814
 H        -0.3165878525       -0.3634155241       -9.8152010484
 H        -7.7356049259        2.7248411531       -9.4809396638
 H        -7.9012839584        4.3406154202      -10.1537471490
 H        -8.3193059724        4.1059930291       -8.5063632374
 H        -5.5036117737        5.7465171350       -9.9829844848
 H        -4.7931461703        5.8112687706       -8.5091899876
 H        -6.5358758952        6.1988314226       -8.6589165690
 H       -10.9032496861        2.4755400111       -4.7552567718
 H        -9.6460887823        3.2924846939       -5.6269554169
 H        -9.3160290725        3.1171374835       -3.9402668549
 H        -9.2239044427        0.0944261073       -3.1637161123
 H        -9.5498760425       -0.9471667808       -4.3425058130
 H       -10.8602502442        0.1974613970       -3.9343241473
 H       -13.6602105543       -2.3617313797       -8.8000312878
 H       -14.0472645865       -3.9488432453       -8.5225808762
 H       -12.4252093950       -3.5370240486       -9.1648302397
 H       -14.8967868073       -2.1507395133       -6.9581869772
 H       -13.7049480409       -1.0694552800       -6.2680691465
 H       -14.3179077873       -2.5882669132       -5.5232700680
 H       -15.6224034811       -6.7692858200       -5.8325009599
 H       -15.4817163039       -6.6543372967       -4.2386570852
 H       -16.5173072933       -7.8502355940       -4.9637661221
 H       -12.7045056621       -9.2409870449       -3.9827291225
 H       -14.3131149553       -9.4164680781       -3.2384003873
 H       -13.5743659682       -7.8549014819       -3.0742344819
 H       -13.1708673639      -12.7790106158       -8.4797573051
 H       -13.9818619966      -12.2860262441       -9.9998828955
 H       -13.3878140446      -13.9317623906       -9.8942042959
 H       -16.9488907932      -14.1800967241       -8.9870087782
 H       -15.8088638035      -14.9398554497      -10.0637694734
 H       -16.1888849194      -13.2358961187      -10.4059272093
 H       -14.4005825475      -17.9773030169       -3.8455457036
 H       -16.1232454822      -18.1998932055       -3.1865721139
 H       -14.7568456971      -17.8544968303       -2.1409535996
 H       -17.3875646463      -14.9555014451       -2.5660832036
 H       -16.2775089938      -15.5686947564       -1.3943534888
 H       -17.2515231167      -16.6787901554       -2.1985857809
 Na      -15.5832345790      -12.7547199467       -4.8816228928
 Na        5.4783122737        2.6708270782      -15.3306760057
