232

 C        10.9873930798        0.5605684733      -15.4670102518
 C        10.2224366512       -0.7332104824      -15.2943833023
 O         9.8066214510       -1.1516211046      -14.2630514404
 C        10.1405108419       -1.6766363176      -16.6515683501
 C        10.5152675194       -3.2225779820      -16.1489723957
 O         9.6145412217       -3.9315681916      -15.8285183030
 C        11.8930286403       -3.7381373328      -15.8957442403
 C        11.7219342933       -5.0897652563      -15.1299023158
 C        11.1323465764       -5.0385348384      -13.7309164407
 O        10.8158090641       -3.9251532222      -13.1860848059
 C        11.0892867620       -6.4083915045      -12.9383843831
 C         9.8507308847       -6.4615054965      -12.0290234006
 O         9.9167904194       -5.9167340883      -10.9485497388
 C         8.6631502364       -7.3442861973      -12.4946476188
 C         7.2268241945       -6.9037822751      -12.1080154648
 C         6.9027163443       -5.4537202014      -12.5540875679
 O         7.1008546648       -5.1200335080      -13.6990125645
 C         6.1990129046       -4.4004164910      -11.5653808372
 C         5.8391012246       -3.0320004206      -12.3490712014
 O         6.7095439599       -2.3750713898      -12.8700809260
 C         4.3082720041       -2.7718476939      -12.6001963334
 C         3.7539979365       -3.4032855376      -13.9674912449
 C         2.9438194897       -4.7318679771      -13.7906784101
 O         3.5265956348       -5.7154497176      -13.4967607205
 C         1.3286413369       -4.7376055470      -13.6402407610
 C         0.8180273602       -3.4555145171      -12.7150900828
 O         0.9018825803       -2.2915565627      -13.0860951728
 C         0.3287518545       -3.6476359260      -11.2899136042
 C        -0.9767394975       -2.9057764396      -11.1916355936
 C        -2.1749379910       -3.9285189031      -11.3209451982
 O        -2.2792910149       -4.7715354552      -10.5016550261
 C        -3.3417655914       -3.7272235055      -12.3599229035
 C        -4.6873623894       -3.5893118735      -11.5043537387
 O        -4.8962185247       -2.4868525903      -11.0271495082
 C        -5.5560755541       -4.8301177809      -11.1666211806
 C        -5.4839285747       -5.2692005530       -9.6619134398
 C        -5.8223806462       -4.3346534679       -8.4656367461
 O        -6.4437051655       -3.2875562863       -8.4940410746
 C        -5.1859959058       -4.6648997546       -7.0261320498
 C        -5.1052225819       -3.1905912159       -6.3694926411
 O        -4.0835693159       -2.5650321162       -6.5291945281
 C        -6.4335147198       -2.6227574095       -5.7113716333
 C        -6.5990818455       -1.0971934301       -6.3317248544
 C        -7.7601007583       -0.2432261739       -5.6858270527
 O        -8.8218251393       -0.7821391318       -5.5607875972
 C        -7.4828416427        1.1900678000       -5.0936885359
 C        -7.3756626480        2.2095756571       -6.3553190216
 O        -6.3897120613        2.8638051055       -6.5446595243
 C        -8.6059878395        2.2599302634       -7.2236525673
 C        -8.2867668780        2.5910910367       -8.6687543244
 C        -7.1277860121        1.7130729867       -9.1660754091
 O        -7.3120407323        0.5023519537       -8.9812389498
 C        -5.9425809210        2.1442770101      -10.0820306239
 C        -6.3719768674        1.5057459049      -11.5002589116
 O        -5.9352401182        0.4252529671      -11.7353694158
 C        -7.0960319096        2.3469627975      -12.6137385682
 C        -7.9822860167        1.6444486781      -13.6392223053
 C        -9.3772781863        1.2976742679      -13.0769596018
 O        -9.9082268464        2.0534430558      -12.3399397253
 C       -10.0654396122       -0.0923067639      -13.4898323425
 C        -9.5394384950       -0.8612973973      -12.2114148910
 O        -8.4156501332       -1.3690990591      -12.1548363917
 C       -10.2082844255       -0.6608519725      -10.8939985401
 C       -10.9578471642       -1.8695717260      -10.3038845118
 C       -10.2642729335       -2.5512320886       -9.0566454686
 O        -9.0825748604       -2.3746431013       -8.7984379615
 C       -11.2353048627       -3.3003468230       -8.1473683978
 C       -12.3254818518       -2.3365114890       -7.3919449782
 O       -13.4749663672       -2.6286612504       -7.6304046831
 C       -11.7975105149       -1.0378639776       -6.6887423429
 C       -12.9872676145       -0.0732001898       -6.4846169312
 C       -12.8784010594        1.0615368535       -7.5346174970
 O       -11.9392818054        1.1908797183       -8.2687028237
 C       -14.2057591394        2.0373302532       -7.7209061037
 C       -14.4632196151        3.0461560396       -6.4675408518
 O       -15.4942877655        3.0739579166       -5.8169850829
 C       -13.3259892854        4.0627511659       -6.3387333382
 C       -13.2376011405        4.5979820123       -4.8165666156
 C       -12.2121594213        3.8076550237       -3.9532261564
 O       -11.2043110915        3.3230178000       -4.4223734626
 C       -12.6254054186        3.5895665452       -2.3823668881
 C       -11.8683457512        4.9254196717       -1.7628691783
 O       -12.4458118073        5.8933899705       -1.4117761992
 C       -10.3039944934        4.8562574557       -1.8019015237
 C       -14.0812309763        3.6489935631       -2.1008054463
 C       -11.9228664716        2.3375888426       -1.6807897910
 C       -14.0183506510        2.8118388840       -9.0243774957
 C       -15.5489783107        1.1413968514       -7.9184460115
 C       -12.0375589282       -4.4008464293       -8.8738469671
 C       -10.4340272229       -4.0243858555       -7.0701249084
 C       -11.6495983532        0.1719342282      -13.6011102836
 C        -9.5196278023       -0.6699582676      -14.8237512443
 C        -5.7824800453        3.6968498962      -10.0207682541
 C        -4.6921934167        1.4332479984       -9.5708958675
 C        -8.5773500310        1.4900002294       -4.1597814357
 C        -6.1450836911        1.1958430329       -4.4234196321
 C        -5.9933733894       -5.6431032057       -6.2599519364
 C        -3.7010133012       -5.1926625212       -7.1021150361
 C        -3.1645898434       -2.3939257404      -13.2170765845
 C        -3.4426112889       -4.9121956605      -13.3584990326
 C         0.6962005877       -4.6287807420      -15.0183870097
 C         0.8927235453       -6.0736285347      -12.9427813353
 C         5.0506978643       -5.0602314576      -10.8778794193
 C         7.0703732749       -3.9348706649      -10.3457837000
 C        11.2716635851       -7.6808284763      -13.7252217789
 C        12.3469971255       -6.4066672730      -12.0296333370
 C         8.6199477178       -1.6745202771      -16.9872842186
 C        10.9533903376       -1.1811328569      -17.8499363315
 H        11.2345945862        0.8789862108      -14.4580988834
 H        10.2834188530        1.2383281399      -15.8147049982
 H        11.8691268216        0.5156204395      -16.0987513520
 H        12.3690962038       -3.0445271668      -15.1684990978
 H        12.4747898227       -3.7797156850      -16.8363728563
 H        12.7160918759       -5.4642609026      -15.1093894190
 H        11.2477520127       -5.8590342054      -15.7437815545
 H         8.8147390124       -8.3826192223      -12.2213424974
 H         8.5564862309       -7.2572555579      -13.5720567593
 H         6.9129903766       -6.9485401800      -11.0520037501
 H         6.6196557293       -7.6545804896      -12.6970808987
 H         4.0601732122       -1.7070781136      -12.4901527537
 H         3.7008645590       -3.1237664669      -11.7431102824
 H         4.7298826443       -3.4378998981      -14.6329843407
 H         3.1020803537       -2.6049162376      -14.3991221962
 H         1.0022733633       -3.4618530450      -10.4179915447
 H         0.0548321856       -4.7178326279      -11.2083772924
 H        -0.9552924755       -1.9966155366      -11.7350127229
 H        -0.9745046261       -2.4441667726      -10.1882714197
 H        -5.3890315137       -5.5869016329      -11.8862021428
 H        -6.5779003440       -4.5434757946      -11.3329780569
 H        -4.4726883721       -5.6616447344       -9.5134249099
 H        -6.2199114972       -6.0772716323       -9.3607163793
 H        -6.3617554995       -2.5448821286       -4.6315992064
 H        -7.3535217391       -3.2376142835       -6.0014728595
 H        -6.9133850159       -1.2982589374       -7.3231448295
 H        -5.6390824825       -0.5891661147       -6.3981115164
 H        -9.3971240178        2.8865663411       -6.8356523720
 H        -9.0815085168        1.1862048542       -7.2842679566
 H        -8.0737044834        3.7326465022       -8.7431105084
 H        -9.2538808605        2.4177876962       -9.2190300219
 H        -6.3720346244        2.8697387752      -13.2790476849
 H        -7.7573827238        3.0586624550      -12.0501577678
 H        -7.5726564487        0.7367648887      -14.0325392307
 H        -7.9930173987        2.3217062639      -14.5561373066
 H       -10.6452568735        0.3512373333      -10.9265252936
 H        -9.4066315917       -0.4332819765      -10.1474694160
 H       -11.1061462723       -2.7907361077      -10.8868186678
 H       -11.9507478333       -1.6464977299       -9.8989957771
 H       -11.0086404220       -0.5329806971       -7.2886595521
 H       -11.2104869327       -1.2215520689       -5.8073262886
 H       -13.1330968204        0.2022246317       -5.4637386576
 H       -13.9480492397       -0.6611369599       -6.8025512058
 H       -13.5887839130        4.9152345558       -6.9356630710
 H       -12.3773120631        3.6444572381       -6.6798473981
 H       -14.2261818086        4.4740043311       -4.3307963620
 H       -12.9278660278        5.6107107881       -4.7200563361
 H        -9.9341793607        5.8609983339       -1.7215996827
 H        -9.9395722165        4.4993325402       -2.8141928997
 H       -10.0288456110        4.2015889107       -0.9794216960
 H       -14.5258384336        2.7668785214       -2.5787034036
 H       -14.6529691549        4.5696026739       -2.4320601914
 H       -14.2285054755        3.5382257564       -1.0019060416
 H       -12.5388296421        1.4561554680       -1.8895926090
 H       -11.9011736062        2.3874458625       -0.5592910038
 H       -10.8961887877        2.1879890008       -2.1214299766
 H       -13.5918943374        2.1540641675       -9.9128787757
 H       -13.3060081805        3.6735716225       -8.9313078781
 H       -14.9101350215        3.3446932510       -9.3292615904
 H       -16.3153645822        1.5002900400       -7.1395978677
 H       -15.3819536190        0.1149885663       -7.6883313151
 H       -16.1259039157        1.2636065774       -8.9148780351
 H       -12.7926658231       -3.9073689484       -9.5039559996
 H       -12.4545498784       -4.9494648976       -8.0387411445
 H       -11.4846844897       -5.0397881678       -9.5771702223
 H        -9.8109330035       -3.2607936542       -6.6434669575
 H        -9.8813117699       -4.8693913116       -7.4802960936
 H       -11.0657352955       -4.4290018243       -6.3466710606
 H       -11.7188433965        0.8741334456      -14.4330952850
 H       -12.1858211369        0.5532419845      -12.7503660084
 H       -12.0492357869       -0.7450036660      -13.9496918094
 H        -8.4568329035       -0.9329291034      -14.9482981371
 H        -9.7601066875        0.1721283438      -15.5109459060
 H       -10.1372754410       -1.5341409450      -15.1077561138
 H        -4.8185682772        3.9015189011      -10.5831376765
 H        -5.6979600187        4.0647977722       -8.9920784774
 H        -6.6092546841        4.1749169364      -10.5788668629
 H        -4.8658740436        0.4665437296       -9.1840438817
 H        -4.1496724099        1.9940415356       -8.7802048986
 H        -4.0410383475        1.3468505930      -10.4588689101
 H        -8.6960852517        2.4739317186       -3.8969324602
 H        -8.5468312623        0.9514518079       -3.2562344725
 H        -9.4160964877        1.0871132479       -4.5920607289
 H        -5.3704999600        1.2664859466       -5.1417315264
 H        -5.9120659349        0.3493211183       -3.8020960820
 H        -5.9683892087        2.0256526684       -3.8193953796
 H        -5.6746052363       -6.6551376952       -6.4252892758
 H        -7.0532179291       -5.6171676402       -6.3744194111
 H        -5.8000946089       -5.4865650804       -5.1451740694
 H        -3.3745325604       -5.6452921498       -6.1521578875
 H        -2.9575333359       -4.3984129346       -7.2565047573
 H        -3.6188641268       -5.8544440298       -7.9146178059
 H        -2.1840141915       -2.4992685956      -13.7616166170
 H        -3.1425084039       -1.5525328620      -12.5379571932
 H        -3.9114770333       -2.2712372065      -13.9641198454
 H        -4.1345515868       -4.7004643210      -14.2269365219
 H        -3.5641877847       -5.8596696621      -12.7899042733
 H        -2.5248385100       -5.0252549510      -13.9951394258
 H         0.9638804533       -5.4871687451      -15.6845606294
 H         0.8440573223       -3.6128513561      -15.3834946002
 H        -0.4279269579       -4.6228624600      -14.8670728500
 H         1.3916079524       -6.3041166179      -11.9915716109
 H         0.9947518839       -6.9451748098      -13.6366559533
 H        -0.1623859884       -5.9956040250      -12.6069972892
 H         4.3803967681       -5.7212556075      -11.4587256684
 H         4.2676037450       -4.3247142920      -10.5865114307
 H         5.3429206678       -5.5773360729      -10.0096776504
 H         7.4573097537       -4.7299846195       -9.6691684447
 H         6.5122103597       -3.3596322011       -9.6259726548
 H         7.9087203276       -3.2606204118      -10.6847708823
 H        10.3524882843       -8.0181113403      -14.1087083856
 H        11.6130067395       -8.4785846850      -13.0710344779
 H        11.9967305850       -7.4852861796      -14.4822558323
 H        12.8989790667       -7.3801590461      -11.7915042745
 H        12.1381455336       -5.9693186999      -11.0706937893
 H        13.1765577197       -5.8648651372      -12.4417052354
 H         8.3889607985       -0.8058870240      -17.5776733569
 H         8.1744779675       -1.5666413279      -16.0327158604
 H         8.2343084847       -2.4975265530      -17.4639052501
 H        12.0725983831       -1.1291987368      -17.5532326952
 H        10.6541610535       -0.1484213990      -17.9951874281
 H        10.7940711953       -1.8138687002      -18.7623190988
 Na        8.7105786810       -3.1953023917      -13.6155247823
 Na       -6.9176171063       -1.6786021240      -10.1548962190
