232

 C        11.0441900700        0.6266301378      -15.5782800177
 C        10.3066229803       -0.6558022080      -15.4239282191
 O         9.8374013459       -0.9790444910      -14.3077608288
 C        10.1021726466       -1.6240678998      -16.5691830823
 C        10.4792013241       -3.1174598511      -16.0926210812
 O         9.4173952847       -3.7562540837      -15.9266117965
 C        11.9456013278       -3.7002182382      -15.8142554808
 C        11.7918499442       -5.1063776490      -15.1230395547
 C        11.1181959657       -5.0574302496      -13.8312923240
 O        10.8529829046       -3.9368111419      -13.3351370674
 C        11.0681269808       -6.3856675243      -12.9497097023
 C         9.7132689036       -6.4252801973      -12.0416046106
 O         9.6702121259       -5.9089573433      -10.9147400495
 C         8.5702298661       -7.2613971216      -12.6481590207
 C         7.1907614388       -6.8263971355      -12.0926168993
 C         6.8695314612       -5.3901461599      -12.5023276201
 O         7.2142060320       -5.1703002525      -13.7070755899
 C         6.1678784969       -4.3859647035      -11.4756494270
 C         5.7831471058       -3.2185784827      -12.3591986456
 O         6.6302173895       -2.4475902030      -12.7376442945
 C         4.3164337575       -2.8285146635      -12.6995267029
 C         3.6474870585       -3.4912268701      -13.9116553566
 C         2.9780056504       -4.7886632721      -13.5550484099
 O         3.6626503847       -5.8164556217      -13.4697108687
 C         1.3113689238       -4.7256143968      -13.5956949658
 C         0.9692695451       -3.5554745061      -12.7919018722
 O         1.1693898992       -2.4195901720      -13.2390013080
 C         0.3269354243       -3.6726669407      -11.3045117431
 C        -1.0990374365       -2.9697653564      -11.0721183931
 C        -2.2026682847       -3.9214615440      -11.2214141093
 O        -2.2997237079       -4.8526580180      -10.3978758357
 C        -3.2768095063       -3.7974040236      -12.3916545870
 C        -4.5504432988       -3.6000472327      -11.5128880558
 O        -4.8674643433       -2.4736564747      -11.1107986296
 C        -5.4784179657       -4.7733423733      -11.1206171091
 C        -5.4721710260       -5.2809712255       -9.7260203336
 C        -5.8558634458       -4.3681464034       -8.4662489857
 O        -6.6235672497       -3.4831520967       -8.5994535816
 C        -5.2079742544       -4.6695004383       -7.0680317335
 C        -5.1344508770       -3.2150582582       -6.4914928662
 O        -4.1104088540       -2.5555959265       -6.4531551704
 C        -6.4054119079       -2.5634397245       -5.8091400931
 C        -6.6821230117       -1.1178221929       -6.2879256387
 C        -7.8050025539       -0.3189500089       -5.5323681374
 O        -8.9215442575       -0.6906727696       -5.2701473908
 C        -7.4433915820        1.1287147517       -5.1246540424
 C        -7.4714347500        2.1470812678       -6.3582618469
 O        -6.4578077164        2.8058702758       -6.6453587883
 C        -8.7342540490        2.2314969335       -7.2434181856
 C        -8.2661953740        2.5726101975       -8.6819388858
 C        -7.2900675362        1.6255922763       -9.1782287844
 O        -7.2658744643        0.4216376290       -8.9586276056
 C        -5.9911111208        2.1546774843      -10.1073019600
 C        -6.3648626322        1.5608602854      -11.5119855748
 O        -6.0640833962        0.3900123731      -11.8073817466
 C        -7.2615514403        2.4419550551      -12.3874760669
 C        -7.8835878151        1.6657985388      -13.5076116994
 C        -9.3969955718        1.2810937524      -13.1410809939
 O       -10.0075135266        2.0304675303      -12.3705571134
 C       -10.0924392562       -0.0150674204      -13.5004293744
 C        -9.4919126003       -0.8310266957      -12.1510937993
 O        -8.4662249617       -1.4147439266      -12.3283675704
 C       -10.2649391759       -0.5554199563      -10.8137209206
 C       -10.8536243856       -1.8502027649      -10.3473691832
 C       -10.2950644369       -2.5077533827       -9.0938421712
 O        -9.0965061055       -2.5092451696       -8.8236979338
 C       -11.2528345732       -3.2828976023       -8.1262249426
 C       -12.2767972989       -2.3158163058       -7.4968868592
 O       -13.4336225041       -2.5948284973       -7.3689602856
 C       -11.8653473293       -1.0908438302       -6.7231234262
 C       -12.9645252404        0.0527613331       -6.5523377499
 C       -12.9995111092        1.0435634213       -7.6205460144
 O       -11.9798215818        1.3275094439       -8.2622301644
 C       -14.2071700410        2.0519727247       -7.7214474169
 C       -14.4194334219        2.9678008262       -6.4252950696
 O       -15.3441030981        2.8572384662       -5.7064434185
 C       -13.2884053264        3.9826318704       -6.2211208975
 C       -13.1895739573        4.5585188002       -4.8281513523
 C       -12.2640127401        3.6768389337       -3.8413581309
 O       -11.1792091762        3.3437208705       -4.2877089042
 C       -12.5887648855        3.6324468229       -2.3326488462
 C       -11.8574755216        4.9454175981       -1.7721482397
 O       -12.4465331762        5.9516688818       -1.4404749813
 C       -10.3008479281        4.9140881272       -1.7456758656
 C       -14.0931390653        3.5305820380       -1.9536938199
 C       -11.9255708916        2.4402341841       -1.6763158282
 C       -14.0014945524        2.9613936570       -8.9632422309
 C       -15.4435718563        1.0814570762       -8.0009133907
 C       -12.0757704190       -4.4158493444       -8.8731967983
 C       -10.2764347299       -3.9270924110       -7.0434898982
 C       -11.5849452549        0.1307249019      -13.6744958929
 C        -9.3987407063       -0.7616946398      -14.6829096026
 C        -5.8120805521        3.7178127488      -10.0841110194
 C        -4.7173950115        1.4154579328       -9.6110158912
 C        -8.6004460496        1.6267155637       -4.1328250349
 C        -5.9746487190        1.1552427544       -4.4637988193
 C        -5.9844323834       -5.5292911282       -6.0707122353
 C        -3.7516923239       -5.2018070111       -7.2259198892
 C        -3.1266056839       -2.4818214193      -13.1873330386
 C        -3.2750400613       -4.9517105383      -13.4772646948
 C         0.8153572218       -4.4832955475      -15.0957806018
 C         0.9310270176       -6.0718473563      -13.0719243126
 C         5.0038840116       -5.0930057585      -10.6931672509
 C         7.3052108614       -4.0043853576      -10.4270712018
 C        11.2546379267       -7.7165831013      -13.8179992868
 C        12.2708707798       -6.1896513088      -11.9288180673
 C         8.5219359343       -1.7224300359      -17.1044925360
 C        10.9450642242       -1.3609836229      -17.9343249458
 H        11.4227920849        0.8562437963      -14.5235021984
 H        10.2869039529        1.3868561054      -15.8239315748
 H        11.8403629342        0.6144850798      -16.3033761972
 H        12.5407130036       -3.0607647867      -15.0852589345
 H        12.4143335440       -3.6820209381      -16.8806537004
 H        12.7332672205       -5.6664522117      -15.1638549643
 H        11.1548128585       -5.7838617595      -15.7398422381
 H         8.6173372591       -8.2916122324      -12.2929677805
 H         8.5211160863       -7.2414556330      -13.7627264536
 H         7.2028258289       -6.8430302420      -11.0075540491
 H         6.5321686685       -7.6821081759      -12.4566211433
 H         4.2835204090       -1.7849830440      -12.7716037286
 H         3.6277102237       -2.8987787064      -11.7615061659
 H         4.3938056818       -3.6203379354      -14.6921897273
 H         2.9230001570       -2.7101550247      -14.2662584033
 H         0.9316685959       -3.0221045152      -10.6083161177
 H         0.3714133963       -4.6215559119      -10.8787751983
 H        -1.1870507515       -2.0576632100      -11.6850682557
 H        -0.9858189195       -2.4804978142      -10.1684458153
 H        -5.2270349428       -5.5653919503      -11.8280264183
 H        -6.5201444602       -4.4657692793      -11.4005283658
 H        -4.3876489023       -5.5646288036       -9.6449883961
 H        -6.1134856031       -6.2052453924       -9.5370334205
 H        -6.0146996394       -2.5594760136       -4.7350715589
 H        -7.3591222303       -3.0761302347       -5.9009037847
 H        -6.9113387175       -1.2771472882       -7.3266038225
 H        -5.7797231009       -0.5189882294       -6.2659724779
 H        -9.4450004452        3.0558940266       -6.8946284156
 H        -9.3584973685        1.3220955062       -7.2770253576
 H        -7.8419469570        3.5933496975       -8.6732405940
 H        -9.1634023553        2.6590569106       -9.3001821242
 H        -6.6497767723        3.2415594532      -12.9028725144
 H        -8.0554323909        2.8531316815      -11.7776960711
 H        -7.3300736530        0.7256636745      -13.8609809404
 H        -7.8399627751        2.3412924083      -14.4047884667
 H       -10.9860280042        0.2470711364      -11.0710726019
 H        -9.7334162220        0.0162500742      -10.0839701919
 H       -10.7411625133       -2.6703228357      -11.0323125845
 H       -11.9067246097       -1.8300919911      -10.1357262595
 H       -10.9343978176       -0.6105931957       -6.9949893914
 H       -11.5558792828       -1.4295413905       -5.7432920195
 H       -12.7342694050        0.5933239381       -5.6150144211
 H       -13.9286491596       -0.3225852574       -6.4119407213
 H       -13.5006412027        4.8754482225       -6.8262012821
 H       -12.2873781533        3.6001656139       -6.4834682026
 H       -14.1028252451        4.9441279153       -4.4194616217
 H       -12.4542541060        5.3899834852       -4.9359514308
 H        -9.9082813340        5.9477752332       -1.9226284651
 H        -9.9869766751        4.3547139685       -2.6357826030
 H        -9.9832380022        4.4417358790       -0.8060447854
 H       -14.5158767497        2.6608851065       -2.4522058990
 H       -14.6379455370        4.4204259904       -2.3303503358
 H       -14.2580500881        3.4777850650       -0.8507455267
 H       -12.5826398386        1.5919686102       -2.1132075190
 H       -12.1765556514        2.3899199005       -0.6213214248
 H       -10.8314692040        2.2633118410       -1.8296687637
 H       -13.8877963806        2.3900083152       -9.9173307980
 H       -13.1397548522        3.5996526668       -8.8909893776
 H       -14.8117274046        3.7465364931       -9.0624034174
 H       -16.1109567074        1.1100983180       -7.1266015979
 H       -15.1240359750        0.0670439638       -8.0874041354
 H       -16.0551553381        1.3548519117       -8.8147411139
 H       -12.5378427776       -3.9676224443       -9.7956520650
 H       -12.7479127747       -4.9049392761       -8.1519521712
 H       -11.3745144185       -5.0997813799       -9.3245121096
 H        -9.4423700875       -3.2241632764       -6.8439289691
 H        -9.9003922049       -4.8629408714       -7.5063320313
 H       -10.7821689257       -4.1903345438       -6.0899802606
 H       -11.4944181801        0.8832946037      -14.3733659263
 H       -12.2774505760        0.3615232937      -12.9234787884
 H       -11.9194554845       -0.6978431112      -14.2886829045
 H        -8.4324988767       -1.0018214127      -14.5390187125
 H        -9.4868848592       -0.0511145946      -15.4985082515
 H        -9.9581197855       -1.7273098819      -14.8971181354
 H        -4.7773344316        3.8771561565      -10.4087632130
 H        -5.8749969494        4.0768522299       -9.0285777276
 H        -6.4100196303        4.2079827022      -10.7487424537
 H        -4.8631726151        0.3541256461       -9.5172103677
 H        -4.3606924350        1.7404740877       -8.6039376656
 H        -3.8946270309        1.5962510526      -10.3776163503
 H        -8.4784018978        2.6172593455       -3.8962078623
 H        -8.6513384491        1.1337961354       -3.2272795700
 H        -9.5889679515        1.4694955754       -4.5288122631
 H        -5.0604058696        1.2817815108       -5.0736026250
 H        -5.8384720921        0.2060406221       -3.9268326413
 H        -5.8691514758        1.8670515016       -3.6869708766
 H        -6.1436215258       -6.6287265782       -6.3105247791
 H        -6.9189738175       -5.1601658330       -5.7451543176
 H        -5.3666489305       -5.5074696236       -5.1650032059
 H        -3.3470888059       -5.3598623608       -6.2267687873
 H        -3.0544694691       -4.4996976282       -7.6317689884
 H        -3.7343386799       -6.1360766728       -7.8565097610
 H        -2.1529701846       -2.3403387213      -13.5667200147
 H        -3.4653869430       -1.6544575864      -12.5231075248
 H        -3.8260229383       -2.5316686852      -14.0778767509
 H        -4.1805542613       -5.0679482299      -14.0839993142
 H        -2.9164001760       -5.8595506095      -12.9359470559
 H        -2.5690429427       -4.7572761796      -14.2844982005
 H         1.1009548114       -5.3447872651      -15.7800874632
 H         0.9404911758       -3.4215577166      -15.3975938661
 H        -0.3094739622       -4.4901919114      -14.9404763036
 H         1.3343289831       -6.3251030048      -12.0492172290
 H         1.2060348840       -6.8305168864      -13.7940747414
 H        -0.1716231608       -6.1155688812      -12.8536288839
 H         4.1795460780       -5.4874205783      -11.2855655402
 H         4.3816696598       -4.5078931117       -9.9851299672
 H         5.4711330360       -5.8876151763      -10.1246631186
 H         7.7874855111       -4.8822001916      -10.0097366447
 H         7.0074368411       -3.5398884053       -9.4178084229
 H         8.0180764639       -3.3741776081      -10.9008333132
 H        10.3180075505       -8.0165732954      -14.2530796159
 H        11.4191658961       -8.4677253661      -13.1488427993
 H        12.0584270286       -7.6162424305      -14.5095768711
 H        12.8244886875       -7.0504418822      -11.5831734695
 H        11.9555195648       -5.6803843944      -11.0452972959
 H        13.1731722742       -5.5649424006      -12.3754340635
 H         8.4782769435       -0.8253145685      -17.7447282641
 H         7.7000063642       -1.7672827770      -16.3842142388
 H         8.4612732236       -2.5499664831      -17.8052659853
 H        11.9891155647       -1.6163701402      -17.7250281834
 H        10.9517083545       -0.2989221704      -18.2065636577
 H        10.5624361318       -2.0234666368      -18.7621764518
 Na        8.7112505511       -3.0951452006      -13.6318637948
 Na       -6.9344994197       -1.5595695498      -10.3223534637
