232

 C        11.0920757561        0.7220659342      -15.6929116306
 C        10.3542014241       -0.6287061096      -15.5078913794
 O         9.8153019702       -0.8699050209      -14.4169512137
 C        10.1031732715       -1.7066122152      -16.7015332461
 C        10.2530399699       -3.0802173058      -16.1068315148
 O         9.3593991964       -3.9058335170      -15.8204987485
 C        11.6444029843       -3.5558813262      -15.8270001189
 C        11.7990117992       -5.0301815367      -15.3217608792
 C        11.1781379700       -5.0692841779      -13.8555360271
 O        10.7685429855       -4.1114319392      -13.3645803126
 C        11.0791419306       -6.3342487231      -12.8432030294
 C         9.6479250724       -6.4701472442      -12.1312139208
 O         9.4736230937       -5.9473688478      -11.0816533318
 C         8.4849743262       -7.2530652268      -12.7299150711
 C         7.1524316948       -6.8980346146      -11.9144023551
 C         6.8507677722       -5.4350824672      -12.4979808517
 O         7.2895113382       -4.9037186837      -13.5171281751
 C         6.2311051573       -4.5243329751      -11.4916751210
 C         5.7354440281       -3.2407897265      -12.2350877289
 O         6.5921558166       -2.5137201438      -12.7107994118
 C         4.2829290582       -2.7843053928      -12.6488137385
 C         3.7600004161       -3.4988124136      -13.9586160701
 C         3.0047090377       -4.8494713398      -13.6773486642
 O         3.5720656501       -5.8860544154      -13.3369120469
 C         1.4300421894       -4.8562217663      -13.5653921505
 C         1.0150967197       -3.5093765233      -12.7645998603
 O         1.2728890507       -2.4582521628      -13.2550535580
 C         0.4353042504       -3.5898378970      -11.3275217762
 C        -1.0031979383       -2.9917868324      -11.0323326892
 C        -2.1520772836       -4.0515268357      -11.2366635617
 O        -2.4014158619       -4.9575290298      -10.4276707259
 C        -3.2660402270       -3.7823492076      -12.3211970641
 C        -4.6085010670       -3.5916186891      -11.5702782968
 O        -4.8131831856       -2.4654858239      -11.1969771555
 C        -5.5465651727       -4.7732140432      -11.1113623318
 C        -5.3379246873       -5.3942616525       -9.7346385192
 C        -5.8900929912       -4.4439316386       -8.5507516474
 O        -6.7752592338       -3.6599454131       -8.8424415884
 C        -5.2179197987       -4.5548894028       -7.0619489613
 C        -5.1388056881       -3.0706472083       -6.4114776337
 O        -4.0632336094       -2.5213616437       -6.4381284984
 C        -6.4847674461       -2.4735105525       -5.8257564612
 C        -6.8397590704       -1.1211947325       -6.2744488488
 C        -7.7865416257       -0.3462892694       -5.3753721940
 O        -8.9107892023       -0.8389337852       -5.1316771474
 C        -7.4382185964        1.1423114802       -5.0709577000
 C        -7.4949681199        2.0176543897       -6.3446488654
 O        -6.5473683573        2.6907392256       -6.7350986284
 C        -8.7789358720        2.1484162796       -7.1959367407
 C        -8.2531823821        2.6157245737       -8.6983658636
 C        -7.2442824432        1.5448769822       -9.1753436356
 O        -7.3487020640        0.3804656075       -8.9908252283
 C        -6.0101728199        2.0693499477      -10.0963750462
 C        -6.4308411153        1.6191565108      -11.5014463981
 O        -6.2672927571        0.4440569659      -11.8475637468
 C        -7.3615808797        2.5581527532      -12.2700221193
 C        -7.9617104182        1.6898163378      -13.4549206063
 C        -9.3899630781        1.3923448335      -13.1124687096
 O       -10.0754501291        2.1380027816      -12.4065847161
 C        -9.9573953751       -0.0375893879      -13.6182270620
 C        -9.5373793302       -0.7587886747      -12.2165507851
 O        -8.5732466377       -1.4744359731      -12.1535771009
 C       -10.2493548604       -0.5721757862      -10.8389675878
 C       -10.9345963772       -1.9255127098      -10.4821015856
 C       -10.2491211063       -2.5079920060       -9.1449506631
 O        -9.0396486049       -2.4334249159       -9.0604521692
 C       -11.1300307013       -3.2674505129       -8.1005096767
 C       -12.3594076768       -2.2697454354       -7.3330817135
 O       -13.5032479220       -2.6853112082       -7.2717609737
 C       -11.7901454810       -0.9957610351       -6.6550972630
 C       -12.8542574261        0.1039805023       -6.4746025165
 C       -12.9242183541        1.2314424602       -7.6166481201
 O       -11.9639357625        1.4436810085       -8.3500846180
 C       -14.2340696777        1.9981495996       -7.7863244397
 C       -14.2879522318        2.7835958494       -6.4309174407
 O       -15.1846165558        2.5465062733       -5.6175967513
 C       -13.1761520070        3.9047475702       -6.1438459490
 C       -13.1382344606        4.5525995187       -4.7777016782
 C       -12.2643104223        3.7533803077       -3.7551017096
 O       -11.2259712582        3.2142512464       -4.1267211608
 C       -12.5635427789        3.6397158980       -2.2757353096
 C       -11.8493240172        4.9823618343       -1.7900925413
 O       -12.5323263658        5.9505997588       -1.4893717543
 C       -10.3161494967        4.9936847652       -1.6817392943
 C       -14.0837185347        3.6240827901       -1.8783828964
 C       -11.8284118036        2.3864161838       -1.7001507334
 C       -14.0461998694        3.0814423815       -8.9077489936
 C       -15.4427744438        1.1117129009       -8.0253266828
 C       -11.9929364479       -4.3369528919       -8.8624492737
 C       -10.3212159138       -3.8647537319       -6.9307446861
 C       -11.4341878427        0.0203978388      -13.6918314371
 C        -9.2700116872       -0.8687129343      -14.7126556932
 C        -5.8350846401        3.5712781346      -10.0911847172
 C        -4.7410152796        1.4428113172       -9.6001866397
 C        -8.4123883713        1.8301628520       -4.1259086083
 C        -6.0180917571        1.2061862329       -4.4796641745
 C        -5.9946374786       -5.4879500152       -6.0601421223
 C        -3.8186135629       -5.1942590719       -7.2824956894
 C        -3.0431803353       -2.4837277177      -13.2021350742
 C        -3.1383617421       -4.9628379492      -13.2704603252
 C         1.0480249561       -4.4623813007      -15.0293299625
 C         0.8723716344       -6.2549714553      -13.1928368052
 C         5.0926382048       -5.1134803819      -10.6085302458
 C         7.4069376589       -4.0717440979      -10.6807595086
 C        11.2463484289       -7.5427487759      -13.7834932523
 C        12.1887681609       -5.9978900287      -11.8650090503
 C         8.6834555789       -1.6109759416      -17.1293570198
 C        11.0316752101       -1.4723063696      -17.9508744482
 H        11.6042874240        1.0462238627      -14.7836750318
 H        10.3744262597        1.5539368452      -16.0921346431
 H        11.8572703357        0.5088451635      -16.4742042659
 H        12.2774417036       -3.0153418479      -15.0834980529
 H        12.0651576731       -3.4224546765      -16.8487523561
 H        12.9064393798       -5.2594335579      -15.4149179574
 H        11.3921408631       -5.8014994435      -16.0025400603
 H         8.5282892762       -8.3787129834      -12.6800535512
 H         8.3287180298       -6.9480549666      -13.7800218564
 H         7.3775586534       -6.7291631193      -10.8511366077
 H         6.4634420234       -7.7218401969      -11.9924505202
 H         4.3450195341       -1.6956882023      -12.7915584714
 H         3.5396759158       -2.7443676611      -11.8701131209
 H         4.5831121452       -3.6829231394      -14.5674359381
 H         3.2551428633       -2.7000671095      -14.4750138504
 H         1.1106282330       -3.0285666837      -10.7203862614
 H         0.4916348051       -4.5886797412      -10.9181926179
 H        -1.1926685228       -2.0614290949      -11.5842296812
 H        -0.9202233314       -2.5593892161      -10.0522577356
 H        -5.3868066144       -5.5948579144      -11.8937908151
 H        -6.6456590416       -4.4881682646      -11.1254291612
 H        -4.2742393688       -5.6901014130       -9.6446375352
 H        -5.9825727852       -6.2732726393       -9.6660856384
 H        -6.3315769424       -2.5869139483       -4.7167912055
 H        -7.2896061554       -3.0831664011       -6.1330484759
 H        -7.1248587844       -1.2287280904       -7.3608700117
 H        -5.9304476719       -0.5250202083       -6.2412419043
 H        -9.3602272559        2.9822335605       -6.7119256886
 H        -9.4503401599        1.3614310007       -7.2465408081
 H        -7.9754490010        3.6071094570       -8.7127507986
 H        -9.0942746071        2.5930758449       -9.3626755311
 H        -6.7722338093        3.3941390806      -12.5856371165
 H        -8.1704405332        2.8454168333      -11.6081669507
 H        -7.5121068859        0.6329466077      -13.5351305438
 H        -7.8821533113        2.0494183492      -14.4754061485
 H       -10.8755390884        0.2892986395      -10.6307795482
 H        -9.4440689967       -0.2676409384      -10.2021687090
 H       -10.8203686082       -2.7157107891      -11.2203898057
 H       -11.9872757536       -1.8347356958      -10.2966009697
 H       -10.9653417158       -0.5882993169       -7.2116929344
 H       -11.2640424750       -1.2061302692       -5.7085734969
 H       -12.7026914563        0.5885722617       -5.4887379588
 H       -13.7724719985       -0.3740337127       -6.3621283065
 H       -13.3951251566        4.7715620242       -6.8189145717
 H       -12.1762150648        3.4940897771       -6.3688873550
 H       -14.1408879493        4.4806335565       -4.3702458736
 H       -12.8350305328        5.6379114047       -4.7628369600
 H        -9.8633849083        5.9723281047       -1.9415269603
 H        -9.9619724853        4.2933688646       -2.3957980213
 H       -10.0989890848        4.6631740765       -0.6483636440
 H       -14.6002505033        2.7857372916       -2.3772372725
 H       -14.5186961959        4.5121893031       -2.2405365894
 H       -14.2267252463        3.6136158886       -0.8136921178
 H       -12.2270631297        1.4658683215       -2.1552576092
 H       -12.0744076649        2.3186781387       -0.6362272481
 H       -10.7427315095        2.4429468949       -1.7598388817
 H       -14.2182778056        2.7739962040       -9.8498730557
 H       -13.0279052474        3.4320034912       -8.8834686208
 H       -14.5931836328        4.0233813459       -8.7558001611
 H       -15.8366568927        0.7962678360       -7.1478979620
 H       -15.2363890678        0.2126555947       -8.6237638635
 H       -16.1595823140        1.6631982571       -8.4956732742
 H       -12.2061448615       -3.9929854862       -9.8480422174
 H       -12.8480358748       -4.6595714367       -8.2455850888
 H       -11.3165182142       -5.1645732260       -9.0762946572
 H        -9.5342510175       -3.1501192866       -6.5571293144
 H        -9.8335398736       -4.7971162811       -7.3160478456
 H       -11.0504053951       -4.1560449742       -6.0724261352
 H       -11.5710034329        0.8739051114      -14.3363650982
 H       -11.8370697882        0.2654063653      -12.6988521720
 H       -11.9540381198       -0.8273064302      -14.1086865844
 H        -8.1843883402       -1.1365835746      -14.5218069354
 H        -9.3816857759       -0.2887053105      -15.5659222945
 H        -9.7568838863       -1.8033783123      -14.7764183408
 H        -4.9512845319        3.7865460594      -10.5727085892
 H        -5.7550276812        3.8206841481       -9.0706192884
 H        -6.6279597634        4.1096007151      -10.6471946197
 H        -4.7073447022        0.3017000577       -9.7973148860
 H        -4.7128294064        1.4903629930       -8.5011876981
 H        -3.8612795395        1.9342951201       -9.9964008841
 H        -7.9497891929        2.8538507098       -3.7019076393
 H        -8.5766748384        1.2624991750       -3.2007648685
 H        -9.4440517543        2.0205144144       -4.4755462704
 H        -5.1331487335        1.3335053798       -5.1407139730
 H        -5.8416998485        0.2486772736       -3.9660098142
 H        -5.8594039497        1.9694838131       -3.6363418102
 H        -6.4596271023       -6.3776896276       -6.5301632449
 H        -6.8501798950       -4.9765972183       -5.5284565591
 H        -5.3998042781       -5.8079541003       -5.2605548308
 H        -3.2588890186       -4.8342697859       -6.4360932552
 H        -3.2157369025       -4.8484387731       -8.1220811950
 H        -3.8654264131       -6.3141043715       -7.3116919193
 H        -2.0425112362       -2.4353760039      -13.5994712422
 H        -3.3458027081       -1.5995947761      -12.6255285139
 H        -3.7653107515       -2.5697227106      -14.0509756154
 H        -4.0788618791       -5.3209874866      -13.6091088928
 H        -2.5781146104       -5.7324818615      -12.7887512942
 H        -2.6195221412       -4.7312644572      -14.1904096372
 H         1.4418273623       -5.2168821946      -15.7136240081
 H         1.3131778634       -3.3933943479      -15.2104253027
 H        -0.0366911842       -4.4272311619      -15.0811505196
 H         0.9166320764       -6.5114387093      -12.1361844868
 H         1.2008208790       -7.0921011260      -13.7970941360
 H        -0.2058139659       -6.1134841269      -13.3141901419
 H         4.1696080509       -5.0626767618      -11.1473909428
 H         4.8056756371       -4.6327851921       -9.7150206710
 H         5.3155391066       -6.1816487249      -10.2893930121
 H         7.9171337475       -4.8580246168      -10.1830535213
 H         7.0933870978       -3.5601883749       -9.7685347124
 H         8.0646355855       -3.4532791219      -11.2483999019
 H        10.4987980215       -7.4310795130      -14.5556284438
 H        10.8892703056       -8.4407625228      -13.2742408241
 H        12.2569808536       -7.5835918565      -14.1358597536
 H        12.4996696615       -6.8147216209      -11.2825450590
 H        11.9185847269       -5.2170531050      -11.0950633977
 H        13.1071916034       -5.6837988163      -12.3448733229
 H         8.4089671351       -0.6106262308      -17.5359285590
 H         8.0219663983       -1.9089375570      -16.2607361917
 H         8.5095090510       -2.4306221409      -17.9422258182
 H        12.0186220367       -1.6820151596      -17.6888496063
 H        10.9864830902       -0.4061261241      -18.2460164459
 H        10.7089377561       -2.0981688306      -18.7515467941
 Na        8.6908546544       -2.9456168005      -13.6981854307
 Na       -7.0324504687       -1.4896184407      -10.4595186219
