232

 C        11.0882926522        0.6332823067      -15.8666929554
 C        10.2975305611       -0.7083668576      -15.6166359194
 O         9.8061743259       -0.7876975467      -14.5379122795
 C        10.0468365543       -1.7297327491      -16.7612852974
 C        10.1746461905       -3.2444248804      -16.1571343904
 O         9.2308203817       -3.8423673646      -15.7891771847
 C        11.7356849790       -3.6331759313      -15.8453188414
 C        11.7314847396       -4.9779527847      -15.1639938616
 C        10.9982573614       -4.9777319140      -13.8296849973
 O        10.5816286670       -3.9060239431      -13.3519365086
 C        11.0729040935       -6.3107480346      -13.0049389852
 C         9.6328859623       -6.4349147501      -12.2841342672
 O         9.5608858153       -5.9548799682      -11.1670816838
 C         8.5424836973       -7.3241307743      -12.9055535432
 C         7.1836442999       -6.8664743796      -12.1288338989
 C         6.8715820254       -5.4076921320      -12.4283952847
 O         7.3972529324       -5.0144511223      -13.4078240905
 C         6.1199262527       -4.3740871056      -11.4310455744
 C         5.6804979776       -3.0965894897      -12.2679628754
 O         6.6056118210       -2.4485519767      -12.7467316350
 C         4.2444428685       -2.8851554333      -12.6175714566
 C         3.9310128804       -3.6997534805      -13.8592352569
 C         3.1047312160       -4.8803108611      -13.5008394001
 O         3.6194381710       -5.9129215453      -13.2510777884
 C         1.4277534279       -4.7824272244      -13.6485962036
 C         0.9749480233       -3.5499697331      -12.6959760800
 O         1.2230610161       -2.4339307714      -13.1694791035
 C         0.5413698870       -3.7020057513      -11.2437546466
 C        -0.8632540807       -3.1194636292      -11.0237970974
 C        -2.1755886791       -3.9932103223      -11.2031491989
 O        -2.2671626807       -4.9511908243      -10.5206126601
 C        -3.2323168174       -3.7860085476      -12.2896698254
 C        -4.6221073321       -3.5694711887      -11.4651012786
 O        -5.0029114665       -2.4569594718      -11.1973433745
 C        -5.5871207146       -4.7324171075      -11.2001107244
 C        -5.2720324480       -5.4061407702       -9.7367585539
 C        -5.8701915584       -4.5495843122       -8.6613869711
 O        -6.8103290875       -3.7701096774       -8.9312638327
 C        -5.2176608818       -4.5003871729       -7.1780196008
 C        -5.1907635128       -3.0622265827       -6.4880062180
 O        -4.1630706799       -2.4434484920       -6.3989581090
 C        -6.4715428490       -2.5122088476       -5.8512370996
 C        -6.8124367337       -1.0520673370       -6.3546624310
 C        -7.8833252391       -0.2765530570       -5.3931506812
 O        -8.8132622284       -0.9190820800       -4.9488134272
 C        -7.4791991848        1.1927189873       -4.9691041516
 C        -7.4460561376        2.0209578646       -6.4020848269
 O        -6.4369283208        2.5168842366       -6.7662001334
 C        -8.7722259756        2.0376487369       -7.2326526474
 C        -8.3524604665        2.4901088654       -8.6590737790
 C        -7.2495740672        1.5879368014       -9.1830036167
 O        -7.4873152568        0.3687240323       -9.0287812713
 C        -6.0479644720        2.0859108906       -9.9467423496
 C        -6.5929378685        1.5621254517      -11.4619711863
 O        -6.3702480535        0.4495873049      -11.8381731510
 C        -7.3025288044        2.5715252839      -12.3374888857
 C        -8.0088697744        1.8304955067      -13.5854265349
 C        -9.4053039652        1.4246980998      -13.1780085883
 O       -10.1687404162        2.1076072289      -12.5733564965
 C        -9.9324975583       -0.0726876114      -13.4416575918
 C        -9.5076128235       -0.8429506151      -12.1409743674
 O        -8.5228482178       -1.6066428751      -12.1624173015
 C       -10.3438416649       -0.6013364790      -10.8865359083
 C       -11.0325370477       -1.9161554002      -10.4315542012
 C       -10.2817847580       -2.4726666845       -9.1822898654
 O        -9.0843045903       -2.3399688739       -9.1592819732
 C       -11.1606968289       -3.1781458595       -8.0773339272
 C       -12.2181222736       -2.2446079884       -7.3164340302
 O       -13.3616066121       -2.6602328401       -7.2082502197
 C       -11.7489979211       -0.9011572970       -6.7461598733
 C       -12.7970766422        0.1491473099       -6.5311299631
 C       -12.8124095657        1.2484762487       -7.7120738775
 O       -11.8090474480        1.4144064423       -8.3634488703
 C       -14.1486217001        2.0629732705       -7.7400713979
 C       -14.2209142158        2.7333929333       -6.3419493410
 O       -14.9490064405        2.3087247104       -5.4651667712
 C       -13.2046551341        3.7899986223       -6.0946799816
 C       -13.2251488287        4.3559784264       -4.6926336294
 C       -12.2754173428        3.6338558603       -3.7296766550
 O       -11.2684113075        3.1285647404       -4.2145361032
 C       -12.5124398461        3.6867094505       -2.1730202666
 C       -11.9051757159        5.0016318983       -1.6282739701
 O       -12.5845654309        5.9751480102       -1.5573692763
 C       -10.3735921197        5.0955894301       -1.5851122129
 C       -13.9979231225        3.7642003079       -1.8432769797
 C       -11.8298375229        2.3550537193       -1.6610371681
 C       -14.0933991650        3.1408342164       -8.8814075353
 C       -15.4015815368        1.2333894516       -7.9824467991
 C       -11.9009197831       -4.2966896025       -8.7985806819
 C       -10.4227330931       -3.7453258876       -6.9197582113
 C       -11.5059612777       -0.0920726462      -13.7295319007
 C        -9.1794450309       -0.7368836024      -14.6555684382
 C        -5.8369726643        3.6560180693       -9.9688912083
 C        -4.7306421956        1.3242630628       -9.5632253708
 C        -8.3395965779        1.9510208081       -3.9992669898
 C        -6.0396920476        1.2272065344       -4.4794025968
 C        -6.0574743665       -5.4690623232       -6.2739177919
 C        -3.8264328320       -5.0645046139       -7.1722438205
 C        -2.9340202203       -2.4942248406      -13.1985967005
 C        -3.1206007580       -5.1639612372      -13.1377659453
 C         1.1233649087       -4.5457133105      -15.1736248166
 C         0.8553245082       -6.1268901088      -13.2874110336
 C         5.0941297668       -5.1317246273      -10.5075435611
 C         7.3982307899       -3.9576859026      -10.5729847393
 C        11.4132146847       -7.6861869021      -13.7852093915
 C        12.0601653474       -6.0360181886      -11.8661230146
 C         8.6022662886       -1.3538386057      -17.2112051644
 C        11.0948384738       -1.5162203125      -17.8594877851
 H        11.5260174105        1.0243301807      -14.9610077708
 H        10.3967448370        1.3461296135      -16.3456367874
 H        11.8959393128        0.4422444468      -16.6258122377
 H        12.1206438916       -2.9446091858      -15.1064539585
 H        12.3394309772       -3.5173753929      -16.6846091280
 H        12.7394830946       -5.4043274975      -15.0531238828
 H        11.3091342779       -5.6820600178      -15.8943373896
 H         8.6207704754       -8.3871034120      -12.5974660255
 H         8.5287287422       -7.2325361423      -13.9943502607
 H         7.3060802861       -7.1699537321      -11.0842017632
 H         6.3403374439       -7.3734312438      -12.5318048885
 H         3.8340177988       -1.8467382965      -12.6640229217
 H         3.6900842146       -3.2397465178      -11.8317364558
 H         4.8042227404       -4.0915767808      -14.4161604962
 H         3.5774419126       -2.9672631241      -14.5172188517
 H         1.2248829525       -3.1849935815      -10.6289468965
 H         0.5967919884       -4.7863547206      -10.9275797746
 H        -0.9078154826       -2.1540047616      -11.4799924560
 H        -0.8570155903       -2.7535933299       -9.9410939955
 H        -5.5794577143       -5.5335318882      -12.0003708340
 H        -6.6198371787       -4.3443082275      -11.0543111900
 H        -4.2325286941       -5.5473986992       -9.5744129071
 H        -5.8048875683       -6.3266292994       -9.7015529729
 H        -6.3229354714       -2.6434206231       -4.8177875919
 H        -7.3364673156       -3.1307533074       -6.1658629525
 H        -7.2285413972       -1.1790334014       -7.4062969173
 H        -5.8610267146       -0.4786978507       -6.4563127029
 H        -9.4840371802        2.6804509171       -6.8459897199
 H        -9.2752791535        1.0669639159       -7.2016462044
 H        -8.1561688808        3.5390444395       -8.5152592281
 H        -9.2017391997        2.5397071673       -9.3215049388
 H        -6.4920114701        3.1800020384      -12.6261642391
 H        -8.0749080611        3.1305671890      -11.7910351306
 H        -7.5314219343        0.9476529276      -13.9410677371
 H        -8.1425848913        2.4734827980      -14.4573515019
 H       -11.1002709451        0.1789097948      -10.9768516529
 H        -9.7054106172       -0.0079170270      -10.2185225961
 H       -11.0121849073       -2.6707858319      -11.2586779962
 H       -12.1013457430       -1.7813688771      -10.2051656142
 H       -10.9474584852       -0.4524276467       -7.3493279590
 H       -11.2039923066       -1.0321035162       -5.7948038577
 H       -12.5059223099        0.7127539456       -5.6644224485
 H       -13.7707672748       -0.3521906229       -6.1719616020
 H       -13.1897314224        4.5941688612       -6.8364799928
 H       -12.2705598250        3.2059841505       -6.1701962456
 H       -14.2502326835        4.2436089881       -4.2331386742
 H       -12.9489544135        5.4056899576       -4.5818792821
 H       -10.1458094099        6.1012427958       -1.8174073876
 H        -9.9057824429        4.4356181593       -2.3394820550
 H       -10.0494783973        4.8837976769       -0.5789161981
 H       -14.5364053916        2.9895502791       -2.3570083754
 H       -14.4177562776        4.7116673452       -2.1137674916
 H       -14.0720953742        3.6638111942       -0.7962198222
 H       -12.1049688730        1.4911872760       -2.1420731707
 H       -11.8801654355        2.2425492708       -0.5777656430
 H       -10.8149101327        2.6180847381       -1.7996235690
 H       -14.5262580316        2.7057636523       -9.8019239608
 H       -13.1342666908        3.4998189107       -9.1773065144
 H       -14.6166552789        3.9916151799       -8.7362130489
 H       -15.5555372113        0.4397255329       -7.2653537472
 H       -15.3673138787        0.7776702937       -8.9326986999
 H       -16.2872159392        1.9113793894       -8.0130614574
 H       -12.0903215672       -4.1154914491       -9.8177590826
 H       -12.7658514217       -4.5965938111       -8.2333388753
 H       -11.1408810862       -5.0879671136       -8.8109545541
 H        -9.8678913938       -2.9317987230       -6.3900440444
 H        -9.6640862559       -4.4753334949       -7.3384251788
 H       -11.1283988006       -4.2252988315       -6.2396324142
 H       -11.7780979888        0.5721069030      -14.6337833757
 H       -11.9966201959        0.2734590094      -12.7857131093
 H       -11.8746902355       -1.1049527201      -13.8639623536
 H        -8.0596933294       -0.8870644061      -14.5378267557
 H        -9.4407927111       -0.0781424719      -15.5033072301
 H        -9.5067333926       -1.7196845018      -14.7572270539
 H        -5.2799341746        3.9706236274      -10.8501895276
 H        -5.3255840900        3.8336518689       -9.0796099484
 H        -6.8235932692        4.1807709390      -10.0273561578
 H        -4.6869976820        0.2924048145       -9.9556262779
 H        -4.7452972853        1.1658086282       -8.4709923271
 H        -3.8445684545        1.8937056917       -9.7889698973
 H        -7.8982408901        2.8938569005       -3.5726321285
 H        -8.5388980259        1.2760249132       -3.0265673305
 H        -9.4111803130        2.1538569444       -4.3627505832
 H        -5.3491565463        1.2720976194       -5.3382985547
 H        -5.6521703138        0.3847092710       -3.8492591655
 H        -5.7835371822        2.1525403732       -3.8935273870
 H        -6.4610896713       -6.2274293414       -6.8646103372
 H        -6.9413055901       -5.0318163810       -5.7617078774
 H        -5.5048643398       -5.8960752078       -5.4226897442
 H        -3.2515000625       -4.4665689515       -6.4368475907
 H        -3.2632665187       -4.8656299992       -8.1117778069
 H        -3.7778549236       -6.0975748982       -6.9663937938
 H        -1.9306115624       -2.6207338522      -13.7243219677
 H        -2.9565470153       -1.6397787772      -12.5569484102
 H        -3.7127080745       -2.3547222269      -13.8853950829
 H        -4.1492774203       -5.3265734259      -13.4012879372
 H        -2.7432068056       -5.9697495368      -12.6024887608
 H        -2.5563941297       -5.0918136245      -14.0679321878
 H         1.6136475179       -5.3467777439      -15.6669112140
 H         1.4294870665       -3.5804822922      -15.5016190615
 H         0.0860984090       -4.6209817498      -15.3535547730
 H         0.8877060713       -6.2372528306      -12.2461271542
 H         1.4045917169       -6.9714950079      -13.7283768531
 H        -0.1712689489       -6.2346226699      -13.5522109652
 H         4.0329360672       -5.0520542630      -10.7921216647
 H         5.0661077181       -4.8094899477       -9.4730841350
 H         5.4074166020       -6.1584835861      -10.4163928970
 H         7.6708628828       -4.7201746769       -9.8624074650
 H         7.3143053756       -3.1764884802       -9.9386736537
 H         8.2190235916       -3.7395064828      -11.2808768439
 H        11.0314286932       -7.8030446144      -14.7950387067
 H        10.8963236098       -8.4846423230      -13.1504632343
 H        12.5050172181       -7.7620282675      -13.6885435145
 H        11.8158188433       -6.7907010078      -11.0725483718
 H        11.8542284202       -5.1065497150      -11.3441466860
 H        13.0633978945       -6.0480787612      -12.0240769746
 H         8.3858050202       -0.2529290521      -17.3916128732
 H         8.0336521922       -1.7152243942      -16.3067839753
 H         8.2556125077       -2.0136276643      -18.0296596724
 H        12.1148860733       -1.4554629026      -17.4732071126
 H        10.8396636259       -0.6614146368      -18.4170350298
 H        10.9808713960       -2.3479765710      -18.4720203436
 Na        8.6601304958       -2.7723992074      -13.7752644730
 Na       -7.0816454533       -1.5411333683      -10.4962432089
