232

 C        11.1202116396        0.7443043548      -15.9983553503
 C        10.3782109093       -0.5492495729      -15.7981105394
 O         9.8143955785       -0.6927366736      -14.7278460677
 C        10.0471074565       -1.6747521765      -17.0008520310
 C        10.0395103028       -3.0989980827      -16.3021884762
 O         9.0259498203       -3.6261045805      -15.9974691329
 C        11.4330211599       -3.7380653643      -15.9136999723
 C        11.4543500983       -5.0606418476      -15.0873031668
 C        10.9105335692       -5.0044633215      -13.6444954595
 O        10.2578325951       -4.1026366535      -13.2882072890
 C        11.0215907113       -6.3518534269      -12.8821921534
 C         9.5821852821       -6.4683296026      -12.2449732366
 O         9.2536012996       -5.9676535244      -11.1934110868
 C         8.4595274134       -7.2691905611      -12.9500519651
 C         7.1435015860       -6.6534005776      -12.5124452180
 C         7.1825369253       -5.0636068340      -12.5260999152
 O         7.7073572829       -4.5637848506      -13.4728462695
 C         6.4482974485       -4.2747852207      -11.3776619546
 C         5.8220114691       -3.0539646774      -12.1711761694
 O         6.5583508633       -2.1542617435      -12.5480025407
 C         4.3460562688       -3.0678066917      -12.4887493458
 C         4.0221327825       -3.9342724851      -13.6583506008
 C         3.0155914502       -5.0824723250      -13.3243795315
 O         3.4749884956       -6.0866396617      -12.8644365098
 C         1.5059292112       -4.9401508648      -13.7055464202
 C         0.9645261536       -3.7306156278      -12.7208751818
 O         1.0363945687       -2.6377180599      -13.2246185200
 C         0.5194080376       -3.9322951310      -11.3253192943
 C        -0.8010387077       -3.1878539728      -11.0977250307
 C        -2.0448698867       -4.1434220107      -11.0954312434
 O        -2.0185193782       -5.0980686604      -10.3423740576
 C        -3.1451973251       -3.9155888283      -12.1681724243
 C        -4.6016031315       -3.5437114879      -11.5158571504
 O        -4.9077413046       -2.3986135219      -11.3305963849
 C        -5.5299136809       -4.6952256293      -11.1295301042
 C        -5.1437173607       -5.1887892966       -9.7255500760
 C        -5.6998526439       -4.2888396555       -8.6940212979
 O        -6.6384046717       -3.5353466622       -9.0499191210
 C        -5.2576917336       -4.4988934622       -7.2659945805
 C        -5.4168819668       -2.9875725433       -6.6931195868
 O        -4.5058231465       -2.1985025574       -6.6444322264
 C        -6.8089909586       -2.6040975840       -6.2556192402
 C        -6.8956624877       -1.1162959931       -6.3188487298
 C        -7.5592916239       -0.3323407926       -5.1288788048
 O        -8.5513661307       -0.8934452119       -4.6116059692
 C        -7.2340415568        1.1746607055       -4.9085760615
 C        -7.2824101667        1.8423430767       -6.3180484753
 O        -6.3149282060        2.0725689292       -6.9632780237
 C        -8.6782797610        2.0601866372       -6.9340107961
 C        -8.5539262183        2.4250711127       -8.4619333520
 C        -7.5678935996        1.4125479988       -9.1451652183
 O        -7.8235513380        0.2464016537       -9.1901689171
 C        -6.4177286451        1.9400711165      -10.0373696600
 C        -6.8320283087        1.5894591175      -11.5326188877
 O        -6.8317478957        0.4270590479      -11.9261923783
 C        -7.2076968926        2.6620029020      -12.5478886014
 C        -8.1651204315        2.1041438774      -13.6942195314
 C        -9.5239995295        1.4875104310      -13.3050433664
 O       -10.3753852723        2.1474293122      -12.7671429129
 C        -9.7638565440       -0.0923357973      -13.5095323711
 C        -9.5186286189       -0.9027235073      -12.1517286267
 O        -8.7097563088       -1.7890970314      -12.2295232836
 C       -10.3710691672       -0.4166600956      -10.9085683696
 C       -11.1703661924       -1.6379139290      -10.3340539117
 C       -10.3484146880       -2.3036633966       -9.0713957940
 O        -9.1443470944       -2.1580727773       -8.9723775996
 C       -11.0415215569       -3.2486046459       -7.9517092293
 C       -12.0468420402       -2.1365116547       -7.3796024749
 O       -13.2315716048       -2.4321825578       -7.2511766827
 C       -11.4021631329       -0.8212570721       -7.0238647713
 C       -12.4962991291        0.2126709665       -6.6951034805
 C       -12.7079189509        1.2915498283       -7.8184850231
 O       -11.9026741220        1.4443451682       -8.7082591722
 C       -14.0174211007        2.1173178705       -7.7632308112
 C       -13.9767232106        2.6063891147       -6.2346016239
 O       -14.3549921749        1.8793598687       -5.3051533840
 C       -13.4971953515        4.0073715109       -5.9592833320
 C       -13.3830129083        4.3246382703       -4.4561027472
 C       -12.3751350521        3.5192099335       -3.5920125440
 O       -11.4269190105        2.8892875779       -4.0431228808
 C       -12.4923029374        3.6843305464       -1.9530630441
 C       -11.9184518884        5.1520332220       -1.5825629330
 O       -12.5997063399        6.1136363654       -1.7069725704
 C       -10.3822213505        5.1766207538       -1.2712681206
 C       -14.0106384352        3.6343960601       -1.5597581026
 C       -11.6058659249        2.6135734000       -1.2382528549
 C       -13.9400856955        3.2257287380       -8.7956261688
 C       -15.2713683050        1.1689946271       -7.9456152575
 C       -11.8618723956       -4.3960566216       -8.5110038819
 C        -9.8848042428       -3.8276201909       -7.0295475910
 C       -11.3224422319       -0.1855748051      -14.0157459840
 C        -8.9457907910       -0.6042503687      -14.7474009482
 C        -6.0907930531        3.4508289920       -9.8835829085
 C        -5.1203719847        1.1310534977       -9.5996154858
 C        -8.3161289375        1.6920754215       -3.9825116732
 C        -5.8778555814        1.3691837200       -4.2371061553
 C        -6.1634205872       -5.6314653375       -6.6349389516
 C        -3.7443008144       -4.9040794644       -7.1253222478
 C        -2.8268359772       -2.6496872595      -13.0257018393
 C        -3.1072847491       -5.2231998932      -13.0461273436
 C         1.2921617146       -4.3746537179      -15.0932377584
 C         0.7718518820       -6.2844027263      -13.5077371428
 C         5.4074323276       -5.2655965479      -10.6018097512
 C         7.5505993692       -3.6719714071      -10.4107805672
 C        11.4159710328       -7.5849922638      -13.8071462041
 C        12.1106451178       -6.1449971643      -11.7450813032
 C         8.5044726095       -1.4557283859      -17.5579651016
 C        11.0373627354       -1.5302300743      -18.1240560933
 H        10.6231968224        1.2922170409      -15.2613600553
 H        11.2233581434        1.1539644676      -17.0353819604
 H        12.1433329191        0.6088017684      -15.5928104476
 H        12.1389030765       -2.8990382320      -15.5435726370
 H        11.9311019411       -3.9783339295      -16.8995803087
 H        12.5092967543       -5.4512668032      -15.0644554549
 H        11.0374043123       -5.7413850366      -15.8333923437
 H         8.6759383353       -8.3470494213      -12.7215762201
 H         8.4758559167       -7.1329185842      -14.0337843494
 H         6.8456521405       -7.0189608769      -11.4802055427
 H         6.2978080049       -6.8430129012      -13.1818123810
 H         4.0237234625       -1.9560305726      -12.5403884719
 H         3.8473728679       -3.4639905788      -11.6223177566
 H         4.8954408991       -4.2706457130      -14.1604201254
 H         3.6330413534       -3.3173081125      -14.4501700552
 H         1.3499728366       -3.6006548835      -10.7312210024
 H         0.3730589715       -5.0205734220      -11.1522197167
 H        -0.8499198505       -2.2386122016      -11.6061988959
 H        -0.8135593311       -2.9507687659      -10.0261201655
 H        -5.5673833210       -5.5696411790      -11.8119682223
 H        -6.4686563634       -4.1794190828      -10.9547243422
 H        -4.0173825111       -5.1757098649       -9.7472777871
 H        -5.5470398284       -6.2240654764       -9.5843432263
 H        -7.0749015407       -3.0527051103       -5.2483963579
 H        -7.4897555612       -3.0937309125       -6.9344973188
 H        -7.4332372236       -0.7374881082       -7.2047944407
 H        -5.8634911827       -0.8921937913       -6.3940215004
 H        -9.3137698009        2.6226431705       -6.1951421223
 H        -9.2134884984        1.1077333844       -6.9868585858
 H        -8.5387199288        3.4394877885       -8.6755556871
 H        -9.5099419588        2.1655311331       -8.9433821717
 H        -6.3117431862        3.1084530562      -13.0026595200
 H        -7.7556666180        3.3883203756      -11.9082587306
 H        -7.5706870781        1.2127213359      -14.1013056831
 H        -8.3643964404        2.8687625707      -14.4651525181
 H       -11.1174230863        0.3000010733      -11.2174698089
 H        -9.9392570233        0.2307864750      -10.1076907251
 H       -11.1980639558       -2.3830638547      -11.1073170737
 H       -12.1913305445       -1.4078134257      -10.1122738751
 H       -10.6387869005       -0.4567615100       -7.6870644297
 H       -10.8885986892       -1.0187125517       -6.0531545630
 H       -12.1334643203        0.8571343956       -5.9003878496
 H       -13.3353959828       -0.2553329417       -6.2696489081
 H       -14.0819504150        4.8167394980       -6.4502667468
 H       -12.4756639127        4.0313559630       -6.3634824596
 H       -14.2885745485        4.1910777597       -3.8941574248
 H       -13.1987218080        5.3980210349       -4.2585921163
 H        -9.9691120374        6.1672747557       -1.0154980040
 H        -9.9913839402        4.7348515114       -2.1875927375
 H       -10.1627434914        4.5243733063       -0.3937086586
 H       -14.4476760631        2.6918593517       -2.0251167109
 H       -14.5300523269        4.4839702750       -2.0184687974
 H       -14.1329376848        3.6078311858       -0.4667896060
 H       -12.1174769427        1.6523335123       -1.3108296396
 H       -11.2640395867        2.9244327893       -0.1972008331
 H       -10.6330976178        2.5609429782       -1.7867145312
 H       -13.7163638507        2.8016660932       -9.7708395394
 H       -13.0818122275        3.9530988384       -8.6335516464
 H       -14.7849521046        3.8483595154       -8.9811151583
 H       -15.1547677599        0.1341894693       -7.7925485108
 H       -15.6554718066        1.3351654403       -8.9399770428
 H       -16.0964073971        1.5665972412       -7.3757183924
 H       -12.7384306233       -3.9845220946       -8.9905071533
 H       -12.3122575969       -4.9006851895       -7.6265259038
 H       -11.2549511551       -5.1105277522       -9.1326930843
 H        -9.3794227229       -3.0605680979       -6.4683725675
 H        -9.0920128811       -4.2979659248       -7.5701450296
 H       -10.3922878080       -4.3763198319       -6.2440039699
 H       -11.4141047937       -0.3847036042      -15.0611075484
 H       -11.8213293282        0.6864202029      -13.6667295860
 H       -11.7817895052       -0.9357183551      -13.4811908440
 H        -7.8764552231       -0.8686707555      -14.3944430039
 H        -8.9863863368        0.0774345294      -15.5628344042
 H        -9.3525216464       -1.5129796035      -15.0009978280
 H        -5.1609258203        3.5255451659      -10.3667974556
 H        -6.0354400919        3.7170043766       -8.8839452792
 H        -6.8065789011        4.0726082534      -10.5286229872
 H        -5.4031591675        0.0196054712       -9.4766408453
 H        -4.6605683891        1.4693776388       -8.6713290077
 H        -4.3301821005        1.1530733844      -10.3346125799
 H        -8.2180426022        2.7443305261       -4.0131932007
 H        -8.2259996405        1.4019410800       -2.9200116451
 H        -9.3396802902        1.6355934812       -4.2735274027
 H        -5.1453768408        0.6917577081       -4.5976434788
 H        -5.9517682284        1.1498245865       -3.2001021578
 H        -5.5316714660        2.4232146133       -4.3414172182
 H        -5.6844739967       -6.5981243370       -6.7066171696
 H        -7.0688591711       -5.7233178589       -7.3337591738
 H        -6.5622451756       -5.4316179561       -5.6553805877
 H        -3.6558207148       -5.4906588860       -6.2201969912
 H        -3.0332623720       -4.0506041269       -7.1666062165
 H        -3.4681010003       -5.6414710622       -7.8723878570
 H        -1.8130070103       -2.7678875772      -13.4737870264
 H        -2.8946049732       -1.7561296925      -12.4187396129
 H        -3.6279390827       -2.5506182788      -13.7481704004
 H        -3.7454201510       -5.1453024529      -13.9470403305
 H        -3.3644806291       -6.1692342520      -12.5484941947
 H        -2.0025486378       -5.3103277271      -13.1890301014
 H         1.9160033960       -4.9829698871      -15.8101964960
 H         1.8068016433       -3.3555266102      -15.1308427295
 H         0.2188765564       -4.4188467414      -15.4306266090
 H         1.4235832134       -6.9904378681      -12.9519557521
 H         0.4634132746       -6.7819145188      -14.4791778322
 H        -0.1895993164       -6.1387970442      -12.9707465278
 H         5.1792402526       -6.1489836059      -11.2132657553
 H         4.4577365053       -4.8236719596      -10.3591403829
 H         5.8439348033       -5.5557746901       -9.5950771816
 H         8.0417488674       -4.4704244299       -9.7809805982
 H         7.1291057157       -3.0255770664       -9.6721467549
 H         8.4042373984       -3.0979448870      -10.8955619627
 H        10.5414552194       -7.8934261461      -14.2988977666
 H        11.8171994740       -8.3729316236      -13.1592780923
 H        12.1129563063       -7.3234045264      -14.5527190768
 H        12.3726347767       -7.0134836476      -11.1020871574
 H        11.9042031545       -5.2829742657      -11.0171357545
 H        12.9464606809       -5.7312429358      -12.1975450688
 H         8.4429923603       -0.4937828817      -17.9844994951
 H         7.8205802067       -1.5269406027      -16.7379761454
 H         8.2561429315       -2.3323432900      -18.1509255559
 H        12.0278555974       -1.8280642427      -17.7266605423
 H        11.0167732554       -0.4399625589      -18.4452289933
 H        10.6639558806       -2.0828583470      -18.9941514466
 Na        8.4025139033       -2.5528075002      -13.8653762931
 Na       -7.1622744754       -1.8293882625      -10.2212728427
