232

 C        11.1146704992        0.7648777069      -16.2227908869
 C        10.2042112552       -0.4937840063      -15.9999697499
 O         9.6944615092       -0.5645728163      -14.8892341916
 C        10.0105503766       -1.5977149959      -17.0974531008
 C         9.9489714235       -2.9858127653      -16.4313405707
 O         8.9235640669       -3.5319055293      -16.1396374187
 C        11.2993796567       -3.6191071530      -15.8743290437
 C        11.0814090424       -5.0784232926      -15.3702692337
 C        10.9525883569       -5.0103442609      -13.8235950128
 O        10.4908161813       -4.0747689893      -13.2820576549
 C        11.0530398566       -6.2681500454      -12.8420452134
 C         9.5408529855       -6.5548615804      -12.1104921291
 O         9.4520322558       -6.4410139024      -10.9400943584
 C         8.4423514493       -7.1630988322      -12.9783645633
 C         7.0493435753       -6.5580528663      -12.4850141619
 C         7.0241654253       -4.9733678322      -12.5929309371
 O         7.4973187147       -4.4102897517      -13.5689703576
 C         6.5431238366       -4.1688145104      -11.4561311324
 C         5.7906493987       -2.9030779200      -12.0730332661
 O         6.3214647878       -1.9367681107      -12.5252646303
 C         4.3151300084       -3.1645058741      -12.3758303890
 C         4.0138685564       -4.0692143372      -13.5820170110
 C         2.9255337048       -5.1944905578      -13.2581181333
 O         3.2183248740       -6.1014471216      -12.5126960819
 C         1.4037541811       -4.9963359493      -13.6903925186
 C         0.7717211365       -3.8131431380      -12.8510526062
 O         0.7964555693       -2.6809440894      -13.2291861452
 C         0.4920764429       -4.2379941193      -11.4234150575
 C        -0.5666188257       -3.3811137934      -10.8173093147
 C        -2.0166697025       -4.1378693136      -11.1265824087
 O        -2.3165659636       -4.9841929415      -10.2995837783
 C        -3.0321570303       -3.8161560473      -12.3371826299
 C        -4.4099140304       -3.5683621341      -11.5919664641
 O        -4.7933652775       -2.4308950383      -11.4226940172
 C        -5.3793671868       -4.8853295481      -11.2156956999
 C        -5.4213484240       -5.5626254204       -9.7996306047
 C        -5.6546257062       -4.3812560593       -8.7662368371
 O        -6.0682533840       -3.3101397420       -9.2040574344
 C        -5.2219442958       -4.4893535765       -7.2472821202
 C        -5.2924317265       -3.0360266136       -6.6399740429
 O        -4.3269608037       -2.3033533045       -6.7173020905
 C        -6.6573741035       -2.6110503110       -6.1455216053
 C        -6.7482255155       -1.0168036412       -6.2015731932
 C        -7.5009751509       -0.4575549652       -4.9765550657
 O        -8.2225014737       -0.9913336015       -4.1226819403
 C        -7.2776411586        1.2235330571       -4.8190130431
 C        -7.3147804324        1.7986832676       -6.2304416564
 O        -6.3440824778        1.7233071363       -6.9821975285
 C        -8.7146333250        2.2563664506       -6.7446105790
 C        -8.6749635581        2.5110342018       -8.3035265800
 C        -7.8260526931        1.4565727930       -9.0631721195
 O        -8.0919956668        0.2877602572       -8.9271992867
 C        -6.7214907058        1.8251146123      -10.1279911576
 C        -7.3064406570        1.5705758233      -11.4959599979
 O        -7.2930132802        0.4192849152      -11.9085846012
 C        -7.5538506601        2.6941976817      -12.4867844068
 C        -8.1090328344        2.0835369117      -13.8195952761
 C        -9.3637605370        1.3005640346      -13.2987155019
 O       -10.2145111562        1.9789928394      -12.7435330076
 C        -9.7241629406       -0.1271662375      -13.6144471571
 C        -9.6604065390       -0.9199786540      -12.2137503699
 O        -8.9536035085       -1.8738840505      -12.2276246009
 C       -10.5396168185       -0.5837856162      -11.1199907603
 C       -10.9800472607       -1.8341151885      -10.4038886081
 C       -10.2214833730       -2.4230032383       -9.2159695946
 O        -9.0144689789       -2.5211527812       -9.2943281892
 C       -11.0347721834       -3.1039382134       -8.1230717401
 C       -11.8912388117       -2.0244390382       -7.4634858003
 O       -13.1032092339       -2.1229001794       -7.2766383982
 C       -11.1119712081       -0.8488822920       -6.9094336225
 C       -12.0279934990        0.3188029743       -6.5731225458
 C       -12.4772860242        1.2823890098       -7.7274669655
 O       -11.9837286209        1.1203668575       -8.8354081326
 C       -13.7271106932        2.2236093989       -7.5149424122
 C       -13.8695023947        2.6894966177       -6.0546585899
 O       -14.2737583022        1.8982866769       -5.1814926110
 C       -13.5593849365        4.1016986941       -5.7083009054
 C       -13.6630960383        4.3119580274       -4.1834525029
 C       -12.6078544579        3.5929434661       -3.3889051101
 O       -11.8528823262        2.8796733679       -3.9936695707
 C       -12.4422992039        3.6555842711       -1.7620228644
 C       -11.8561154021        5.1549725120       -1.6374804014
 O       -12.6030288866        6.0312108413       -2.0070314405
 C       -10.5033288421        5.4899296978       -1.0986100360
 C       -13.8178182022        3.6335117120       -1.0788496296
 C       -11.5118648535        2.4969062450       -1.2613864909
 C       -13.7387608326        3.4257066643       -8.4831728948
 C       -14.8946372308        1.1907722864       -7.7717732781
 C       -11.8961967529       -4.1658935877       -8.9222496574
 C       -10.1573985423       -3.7240417123       -6.9651215223
 C       -11.1742180776       -0.2758437606      -14.1362595669
 C        -8.8046913864       -0.8326415229      -14.5886511801
 C        -6.2843525496        3.3468373042      -10.0478826390
 C        -5.4330051622        0.8908007860       -9.8994769706
 C        -8.3114665729        1.8185790496       -3.8629305246
 C        -5.8863158134        1.2173120062       -4.1212155611
 C        -6.1987197545       -5.4609277323       -6.4770192797
 C        -3.8342345153       -5.0347785897       -6.9879092651
 C        -2.5684596286       -2.6341606667      -13.2013866768
 C        -3.0563331116       -5.0669692967      -13.3236222026
 C         1.5205518139       -4.6163189089      -15.1722253948
 C         0.7736935810       -6.3562746835      -13.5260182741
 C         5.6020444282       -4.8567438840      -10.3904491834
 C         7.8046493303       -3.6026597083      -10.6951857916
 C        11.3126605507       -7.5599516980      -13.7109218180
 C        12.2274592687       -5.8512934210      -11.9775073524
 C         8.5617466744       -1.2443453950      -17.6890717799
 C        11.1199922741       -1.6316520949      -18.2814499053
 H        10.5816271931        1.6442906171      -16.4346548217
 H        11.8411034512        0.3946087691      -16.9835000060
 H        11.7295853446        0.9361428230      -15.3814008699
 H        11.7613131993       -3.1888591652      -15.0338541885
 H        12.0543191786       -3.5870698040      -16.6398630941
 H        11.7508616444       -5.7241791257      -15.8984517375
 H        10.0726729902       -5.3709837359      -15.6500875527
 H         8.4344785538       -8.2388535534      -12.9231117987
 H         8.6304065110       -6.9577877115      -14.0171589990
 H         6.8454214725       -6.7935577850      -11.4346102858
 H         6.2934045073       -7.1195289840      -13.0585816688
 H         4.0463852277       -2.1597544574      -12.7738207640
 H         3.8289673974       -3.4326237854      -11.4127855366
 H         4.9607105165       -4.5186631001      -14.0249319171
 H         3.6467390859       -3.3882850615      -14.4462982833
 H         1.4401613240       -4.2818179438      -10.7838960482
 H         0.0955555996       -5.2412250308      -11.5223244694
 H        -0.5447036732       -2.3108953793      -11.1759458959
 H        -0.3920073517       -3.4529515062       -9.7690485153
 H        -5.0681714294       -5.6346714683      -11.9085932778
 H        -6.3764477805       -4.5498483112      -11.3402635508
 H        -4.4708859076       -6.0877902572       -9.6866699193
 H        -6.2393615868       -6.2742525810       -9.7206799847
 H        -6.6620944877       -2.9602326857       -5.0694506376
 H        -7.5161843614       -3.0483328449       -6.5663401549
 H        -7.3146311982       -0.7659851118       -7.1143111667
 H        -5.7800049840       -0.4939365373       -6.1917786323
 H        -9.2301342413        3.1027385816       -6.1538398281
 H        -9.4157021986        1.4415781589       -6.5385753073
 H        -8.4553146384        3.5901496704       -8.4838295101
 H        -9.7679138719        2.5050136617       -8.6783104572
 H        -6.5657019421        3.1840100056      -12.6910564708
 H        -8.2142501741        3.4126883037      -12.0170378336
 H        -7.3662610755        1.3306444619      -14.2272924108
 H        -8.3840383756        2.8980589913      -14.4640729862
 H       -11.4634121462       -0.0794278170      -11.4721982978
 H       -10.3957823293        0.1371959103      -10.2919293778
 H       -11.0758690673       -2.6077687568      -11.2218240421
 H       -12.0106110264       -1.6077664237      -10.0104278251
 H       -10.2268835255       -0.4607510435       -7.4711046261
 H       -10.7266298822       -1.1639134479       -5.9224897006
 H       -11.3752385910        1.0125020877       -5.8927406817
 H       -12.8805274866        0.0701677044       -5.9813571026
 H       -14.3262549665        4.7416201621       -6.1425941253
 H       -12.6270562684        4.4111591928       -6.1692328683
 H       -14.5871260218        3.9456389679       -3.7975999454
 H       -13.7443159721        5.3714249120       -3.8240349481
 H       -10.3945677167        6.5763885526       -1.2103875877
 H        -9.7880645317        4.9052913937       -1.5828669710
 H       -10.4540185959        5.3578488439       -0.0172161114
 H       -14.3905777108        2.7370149645       -1.3189702323
 H       -14.2560357886        4.5175554474       -1.4330785955
 H       -13.7383219465        3.6815548973       -0.0083464802
 H       -11.8622336894        1.6088204367       -1.7415267271
 H       -11.6432258057        2.4211295759       -0.2069539638
 H       -10.4839946877        2.5876564383       -1.5094374452
 H       -13.5713806927        3.2094467553       -9.5065831126
 H       -12.9015209981        4.1814043264       -8.2393123355
 H       -14.6789866083        4.0071707478       -8.5409119747
 H       -15.0633442516        0.6327074342       -6.8221768271
 H       -14.7280278545        0.4738165512       -8.6468439920
 H       -15.8434502921        1.7373686583       -8.0459081174
 H       -12.5091846934       -3.5596161763       -9.5417114986
 H       -12.5861301401       -4.7483830647       -8.3333173511
 H       -11.2411004440       -4.8055461677       -9.4541003970
 H        -9.5445843252       -3.0096007333       -6.4360519448
 H        -9.4504486048       -4.3489506650       -7.4850985369
 H       -10.7509753131       -4.2283889223       -6.1582434092
 H       -11.1238787002        0.4217002295      -15.0021356898
 H       -11.9980622057        0.0157102378      -13.4089654696
 H       -11.3308263580       -1.2636295066      -14.6412928807
 H        -7.6764765928       -0.7295618368      -14.2938350774
 H        -9.0754677811       -0.3476245786      -15.5133537909
 H        -9.2184122697       -1.8122364424      -14.7445949754
 H        -5.6379059855        3.5334044595      -10.9050513259
 H        -5.6383084625        3.3732802198       -9.1779290102
 H        -7.1490483522        4.1283964871       -9.8637547293
 H        -5.7099441973       -0.2003177265       -9.8403710889
 H        -4.9768913298        1.1053563046       -8.9703576534
 H        -4.6774233967        0.9373467987      -10.6393911413
 H        -8.2978384559        2.8607902423       -3.6147015857
 H        -8.2635831237        1.2072934862       -2.9984880986
 H        -9.2753480050        1.7420509925       -4.2151331937
 H        -5.1383705442        0.7993868774       -4.8089499552
 H        -5.9074467136        0.4881619249       -3.3375887836
 H        -5.4904721354        2.1789039803       -3.6801406461
 H        -6.1539624800       -6.5220722048       -6.7957264009
 H        -7.2361030277       -5.1367194791       -6.2998963482
 H        -5.7090891087       -5.4811578615       -5.5591334445
 H        -3.7069014061       -5.0273687978       -5.9325169785
 H        -3.1004778865       -4.4415726446       -7.4851958309
 H        -3.7341682130       -6.1106940417       -7.2671129221
 H        -1.5616054424       -2.8063153857      -13.4774338119
 H        -2.6926305502       -1.6930763265      -12.6833170874
 H        -3.2368442708       -2.6483931714      -14.0915067364
 H        -3.8780033872       -4.9989532717      -14.0070760817
 H        -3.1916415918       -6.0053536940      -12.8077885338
 H        -2.1156561952       -5.0617901665      -13.8497352873
 H         2.0587988862       -5.2411008821      -15.7999694532
 H         2.0031038790       -3.6623696176      -15.1797087627
 H         0.5660386645       -4.4900292909      -15.5675167780
 H         1.2420426588       -7.0841484314      -14.1459158157
 H        -0.2619008689       -6.3328707356      -13.7355843013
 H         0.8479234072       -6.6546157581      -12.5109938060
 H         4.6010431030       -4.8393866236      -10.7430805311
 H         5.7414842598       -4.2710487399       -9.5067068090
 H         5.7780724126       -5.9683141270      -10.1775851094
 H         8.5839313047       -4.3354351534      -10.5218087812
 H         7.4407838926       -3.1711159718       -9.7672649101
 H         8.3659477814       -2.8284941829      -11.1817658673
 H        11.1783649242       -7.2945669471      -14.7868487398
 H        10.6589658174       -8.3410649058      -13.2872895652
 H        12.3243348276       -8.0086129952      -13.6247827315
 H        12.6216715143       -6.6357538821      -11.3610117537
 H        12.0515509324       -4.9267396030      -11.3160604890
 H        13.0459171773       -5.5287782915      -12.6022448065
 H         8.7538825499       -0.3120495793      -18.1312917466
 H         7.7770926135       -1.1671597308      -16.9503125335
 H         8.2732352136       -2.1093592888      -18.3605906411
 H        12.0759572997       -1.3446781751      -18.0007951363
 H        10.6672556042       -0.9953004111      -19.0514982831
 H        11.0769434849       -2.6129324827      -18.6993978366
 Na        8.5314733874       -2.4285557901      -13.7813923205
 Na       -7.0583752510       -1.5776127160      -10.6777084118
