232

 C        10.9790858650        0.6865575211      -16.4909734168
 C        10.0991942184       -0.4394123691      -16.0132134496
 O         9.7507669733       -0.6101414742      -14.8712821019
 C         9.9025535075       -1.5591993434      -17.1000056519
 C         9.7618632087       -2.9336707463      -16.4531358610
 O         8.6955084245       -3.2692102790      -15.9877316330
 C        11.0946420169       -3.6509744290      -16.1988729674
 C        10.9861815520       -5.0156082476      -15.3716772130
 C        10.8182516195       -4.9667338462      -13.8499975947
 O        10.1505498551       -4.1286787183      -13.2061924356
 C        11.1683860886       -6.1764050867      -12.9675784977
 C         9.7126793608       -6.6064285771      -12.1633495144
 O         9.7650515830       -6.9228507803      -11.0549983247
 C         8.4121530830       -6.9557544197      -13.0342058374
 C         7.2251745160       -6.4735028369      -12.1366976548
 C         6.9756614617       -4.9878580493      -12.5094016498
 O         7.2810580879       -4.6471878490      -13.6197238858
 C         6.6373481278       -3.9448153008      -11.4832648488
 C         5.8619803368       -2.9263787570      -12.3359720217
 O         6.4420939982       -2.0569404257      -12.9122660931
 C         4.3156266889       -3.0736202113      -12.3502010886
 C         3.9480671327       -3.9825189211      -13.5159017708
 C         2.8542175710       -5.0629332844      -13.0127578048
 O         3.1928240664       -5.8757936391      -12.1333326382
 C         1.5274993269       -5.2035281570      -13.7594490288
 C         0.6677262010       -4.0551906173      -12.8832182494
 O         0.4570679558       -2.9992773989      -13.3927213745
 C         0.5577576013       -4.2785067792      -11.3696108953
 C        -0.6781903369       -3.5500461470      -10.7989016217
 C        -2.1441994892       -4.1581339974      -10.9855550135
 O        -2.2977852260       -5.1711951080      -10.3174043488
 C        -3.1452307746       -3.8010864693      -12.1872445725
 C        -4.6829294994       -3.6622198063      -11.7947958194
 O        -5.1474315610       -2.5232475381      -11.6446820429
 C        -5.5373396382       -4.8582776454      -11.4157575611
 C        -5.3688606080       -5.0743000306       -9.8449269474
 C        -5.5484929904       -3.9839271634       -8.8161884752
 O        -5.9512493564       -2.8605673243       -8.9634317734
 C        -5.2261008411       -4.4484005573       -7.4005739244
 C        -5.1438180646       -3.1253712745       -6.5708263354
 O        -4.0784951984       -2.5435727961       -6.6186410870
 C        -6.3853687429       -2.6294920856       -5.7243985299
 C        -6.5335798078       -1.1481023634       -5.9407194710
 C        -7.3504386907       -0.3690628093       -4.9163832239
 O        -7.9206376651       -1.1045964453       -4.0868335162
 C        -7.2834130773        1.1943342391       -4.6837283618
 C        -7.3635333722        1.7361476392       -6.1314824919
 O        -6.2832642519        1.8291008054       -6.7525690202
 C        -8.7157054115        2.2346480408       -6.8223345231
 C        -8.6019756051        2.5022548536       -8.3588409883
 C        -7.7318940817        1.5499447953       -9.0977405883
 O        -8.0081204221        0.3333375676       -9.0391300763
 C        -6.6540853160        2.0102990265      -10.0342567668
 C        -7.1965064937        1.5052411710      -11.4332856303
 O        -7.4629467399        0.3532845498      -11.5979778969
 C        -7.6124814952        2.5533663790      -12.4767379295
 C        -8.3245309380        1.9567592084      -13.7831156530
 C        -9.5441426454        1.1372822252      -13.3975072723
 O       -10.4216220706        1.6676331886      -12.7178460361
 C        -9.7847191717       -0.3137705054      -13.8139443733
 C        -9.6215477917       -1.2235376763      -12.5424986149
 O        -8.8097314881       -2.1085697103      -12.7899060986
 C       -10.3387197817       -0.7320645231      -11.2703020890
 C       -11.2094843250       -1.7448776805      -10.4701027363
 C       -10.3478421777       -2.5337670491       -9.4754237661
 O        -9.1581613626       -2.8287112591       -9.4464672953
 C       -11.1337347327       -3.1953179797       -8.2132232335
 C       -11.7391677070       -1.9450008541       -7.3977233545
 O       -12.9506647913       -1.7202959603       -7.5668382448
 C       -10.8455016618       -0.8482788144       -6.6786610929
 C       -11.8301601305        0.1902962349       -6.1952057112
 C       -12.4107770258        1.1664201543       -7.3716061244
 O       -11.7701034412        1.2130337567       -8.4357837461
 C       -13.6869427204        2.1645048064       -7.3481834796
 C       -14.0123445264        2.6208198685       -5.9436111314
 O       -14.3065055740        1.7094052960       -5.1437180241
 C       -13.8804911353        4.0841832662       -5.5103852070
 C       -13.8379534276        4.2171153095       -4.0177023001
 C       -12.5580812318        3.4983475031       -3.3056100674
 O       -11.7851032371        2.7764397637       -3.8884529436
 C       -12.3442012632        3.7554108285       -1.8001422514
 C       -11.9198610522        5.2318518562       -1.5979556168
 O       -12.4995779211        6.1585341228       -2.1492696609
 C       -10.5933317964        5.5052658525       -0.8167070954
 C       -13.7180278920        3.5675377036       -0.9644403603
 C       -11.3716149544        2.7589338950       -1.2348046999
 C       -13.3868581944        3.3602087967       -8.3617203025
 C       -14.9685589865        1.4071062593       -7.8665532816
 C       -12.4047170149       -4.1013394678       -8.5938864632
 C       -10.0928650887       -3.8042694343       -7.2875753350
 C       -11.1401895392       -0.4216094835      -14.5230715124
 C        -8.7234183672       -0.7052726990      -14.9091155077
 C        -6.2776697488        3.5177824232       -9.7925992844
 C        -5.3433601556        1.0714134321       -9.7255442111
 C        -8.4016542517        1.6908594292       -3.7090036790
 C        -5.8189579742        1.6190193509       -4.2251774429
 C        -6.2905635672       -5.5053104154       -7.0155519273
 C        -3.7565623502       -5.1727102470       -7.2511718761
 C        -2.7558908168       -2.4706347800      -12.8436165340
 C        -2.8038776509       -4.9406668269      -13.2764340468
 C         1.6057598031       -4.6457125248      -15.1719333083
 C         0.8794406393       -6.5951297826      -13.7008681792
 C         5.7499648049       -4.6254648777      -10.3418862634
 C         7.8737741282       -3.2138987120      -10.8465833821
 C        11.4535829457       -7.3981332785      -13.8874766245
 C        12.1096391842       -5.7647425064      -11.8127804654
 C         8.6053830939       -1.0722801268      -17.9229335455
 C        11.1373173519       -1.5317087434      -18.2249596028
 H        10.8396237129        0.9255844272      -17.5664406094
 H        12.0454908554        0.4172882130      -16.1527171106
 H        10.6863164501        1.5309987015      -15.8877486719
 H        11.7535207768       -2.9707483336      -15.6716776068
 H        11.6472240991       -3.9440243349      -17.1105060986
 H        11.9171891101       -5.5125027370      -15.6628802819
 H        10.1207005298       -5.5045912976      -15.8941716198
 H         8.3538923605       -8.0512472325      -13.2120070501
 H         8.5604778666       -6.5279026823      -14.0796000310
 H         7.5179933152       -6.6607776003      -11.1333553802
 H         6.2647584705       -6.9997249983      -12.2316908915
 H         3.8703821560       -2.1893430129      -12.5877509901
 H         3.9848202217       -3.5332477996      -11.4359805964
 H         4.6396836920       -4.7258554455      -13.8053217817
 H         3.5432067784       -3.3688071949      -14.3452390104
 H         1.4398597290       -3.8248904449      -10.8922157008
 H         0.5688929897       -5.2870665833      -11.1827085314
 H        -0.6761687061       -2.4590317398      -11.0924856818
 H        -0.5787836117       -3.7128034126       -9.7393451023
 H        -5.0259020030       -5.7610729876      -11.8569883839
 H        -6.6457349183       -4.8429709653      -11.6909189261
 H        -4.2818276951       -5.1737620122       -9.7770156202
 H        -5.7088024758       -6.0608020068       -9.5477307917
 H        -6.3058731137       -2.6792039180       -4.6521227328
 H        -7.2593644795       -3.2403567673       -5.9590870867
 H        -7.0626088445       -1.0058032968       -6.8809875619
 H        -5.4848215465       -0.7002193291       -6.0702053328
 H        -9.1161925432        3.0925477330       -6.3295267232
 H        -9.4223901852        1.4933580758       -6.6764560531
 H        -8.2700726771        3.5327978490       -8.4250576021
 H        -9.5904627505        2.4480957415       -8.7501539744
 H        -6.6128882363        2.9690172089      -12.7384681413
 H        -8.1720447794        3.3649604157      -12.0839904445
 H        -7.6322308953        1.4383488212      -14.4439127361
 H        -8.7749068075        2.7930190532      -14.2160114232
 H       -11.0625043882        0.0805262829      -11.4229837532
 H        -9.5913042261       -0.2475629447      -10.6694909196
 H       -11.6958591971       -2.2652256268      -11.2652495259
 H       -11.9758170974       -1.2726128035       -9.8760062800
 H       -10.3798344191       -0.3708298282       -7.5640939472
 H       -10.1303962107       -1.0647023957       -5.9201700112
 H       -11.3360136136        0.9177913269       -5.5461846441
 H       -12.6172863974       -0.2410221459       -5.5962450734
 H       -14.7115266443        4.6620065948       -5.9455737286
 H       -12.9629281986        4.5570166190       -5.9683403682
 H       -14.7684939047        3.8196362041       -3.5623265727
 H       -13.8918902699        5.2680853885       -3.6808519549
 H       -10.3737569695        6.6103783599       -0.7289821014
 H        -9.7946371425        4.9018211003       -1.2294402501
 H       -10.6990962050        5.2036811371        0.2317161285
 H       -14.0695149374        2.5391566517       -1.0686596703
 H       -14.4222447028        4.3680995923       -1.2240210633
 H       -13.4788155006        3.7456981500        0.1180780555
 H       -11.8653532688        1.7947641949       -0.8383758928
 H       -11.0122302359        3.2269509430       -0.3276068537
 H       -10.6300064799        2.4007802677       -1.9911033573
 H       -13.3550959239        3.0947962444       -9.3211933714
 H       -12.5037345047        3.9235207595       -8.2092726464
 H       -14.2136061248        4.0749063285       -8.3589106424
 H       -15.2428786900        0.7902659359       -7.1093451897
 H       -14.6591618252        0.7402319532       -8.6837971982
 H       -15.7704674894        1.9975725460       -8.1079082877
 H       -13.0725402261       -3.4405113731       -9.2267116472
 H       -12.9615529192       -4.4383858746       -7.6965360161
 H       -12.1027831007       -5.0048751566       -9.1165260898
 H        -9.3548580595       -3.0193777464       -7.0469307070
 H        -9.6934796730       -4.7728658657       -7.6209362411
 H       -10.5953557089       -4.1315340817       -6.3224100897
 H       -11.1863647862       -0.0001182780      -15.4557770029
 H       -11.8574459981        0.0208012473      -13.8854941909
 H       -11.2894731152       -1.4872536360      -14.6252154937
 H        -7.7340489899       -0.7162014236      -14.3824239581
 H        -8.7401122613        0.0153039014      -15.6665701250
 H        -9.0183224720       -1.6631199935      -15.2918020302
 H        -5.3222173283        3.6368956963      -10.1834466485
 H        -6.2481107644        3.7641892325       -8.7652247755
 H        -7.0167611883        4.1880463408      -10.2330631747
 H        -5.3902547624       -0.0651088009       -9.8244800498
 H        -4.8709709274        1.2722420155       -8.7693652737
 H        -4.5792791420        1.3084831234      -10.5169761407
 H        -8.3470366967        2.8201737083       -3.4471177749
 H        -8.3068626766        1.1567512673       -2.6558250195
 H        -9.4794658582        1.5067168798       -4.0512593706
 H        -5.1405710993        1.6195795359       -5.1058606136
 H        -5.3153751983        1.1482151944       -3.3716465972
 H        -5.9934430957        2.6659307006       -3.9452456517
 H        -5.9705811734       -6.4832800122       -7.5040717886
 H        -7.2550248365       -5.2093483188       -7.3791787439
 H        -6.3073901454       -5.6793024209       -5.9566256004
 H        -3.3819795212       -4.9198576403       -6.2646485343
 H        -3.0753496365       -4.7238500420       -7.9503429255
 H        -3.7556028518       -6.2957970484       -7.4246411503
 H        -1.9246595011       -2.6105185683      -13.4526220477
 H        -2.5934638350       -1.7071450032      -12.0568004002
 H        -3.6161195459       -2.2073388895      -13.5309946105
 H        -3.5523659416       -4.9009833583      -14.0637324656
 H        -3.0109068346       -5.8793203176      -12.7092613757
 H        -1.8315425900       -4.9130022619      -13.7584088449
 H         2.4067371722       -5.1856671809      -15.7568012246
 H         1.8995166946       -3.5418588232      -15.2060470066
 H         0.6358274425       -4.6417889714      -15.7548685806
 H         0.4268223435       -6.7948341150      -14.7156112161
 H         0.0996364359       -6.7726969745      -12.9529857238
 H         1.6621764817       -7.4016452979      -13.5720211999
 H         5.3878116920       -5.5682313993      -10.6523711973
 H         5.0631931657       -3.8457432174      -10.0754586015
 H         6.3819157168       -4.8093332413       -9.4484088479
 H         8.3495964529       -3.7931828575      -10.0795648984
 H         7.5283307179       -2.1857119630      -10.4997144412
 H         8.6924930704       -3.0622255443      -11.4816558814
 H        10.7482225256       -7.2135053416      -14.7217790654
 H        11.2964601622       -8.3308804406      -13.4493669759
 H        12.4212459681       -7.4095698802      -14.3556731267
 H        12.2487097224       -6.5977574270      -11.2410534960
 H        11.7343584915       -4.9406593668      -11.1984915019
 H        13.1467300152       -5.5346881123      -12.0720271948
 H         8.7249338742       -0.0463895664      -18.2512499100
 H         7.7106188236       -1.1841132735      -17.2748295336
 H         8.5878469140       -1.7142934678      -18.8805694447
 H        11.9766986069       -1.9675098480      -17.7635685760
 H        11.3577332631       -0.4718889394      -18.4378461156
 H        10.8706411586       -2.1272988355      -19.1379513547
 Na        8.6045819408       -2.3680283679      -13.8862182833
 Na       -7.3307792096       -1.7929982895      -10.5925747220
