232

 C        10.5156949078        0.9908174859      -16.4343011474
 C        10.0154711917       -0.4169517042      -16.0066462197
 O         9.8016293219       -0.7010842269      -14.8399970405
 C         9.9023978913       -1.4373925052      -17.1366101863
 C         9.7654475705       -2.8769925577      -16.5571279851
 O         8.6670173623       -3.3631291384      -16.5669486978
 C        10.9741715662       -3.7337397706      -15.9547613520
 C        10.4996997068       -5.1893065644      -15.5307708312
 C        10.5953526192       -5.1033620795      -14.0285816629
 O        10.0835073146       -4.1028400064      -13.4881316344
 C        11.1102162449       -6.1649508728      -13.1149231340
 C         9.9794572681       -6.8365673814      -12.0656805364
 O        10.4537441901       -7.1195750024      -10.9784850291
 C         8.6062209095       -7.1815781567      -12.5798349615
 C         7.3465920761       -6.3494070051      -12.0630579818
 C         7.2771566854       -4.8777054074      -12.4830019294
 O         7.6698867928       -4.6361712355      -13.5973071087
 C         6.7875470781       -3.7666046279      -11.5021782384
 C         5.8964419919       -2.7431135963      -12.3915968158
 O         6.3721802091       -1.9203310786      -13.1217895717
 C         4.3472509458       -2.8433312673      -12.3718051146
 C         3.7656021604       -3.6457423140      -13.5413491803
 C         2.8212493775       -4.7826897187      -12.9823410112
 O         3.0914416944       -5.2394093058      -11.8803953364
 C         1.4970815830       -5.2045961015      -13.5942751965
 C         0.3638696075       -4.2913746885      -13.0187455547
 O        -0.2284151705       -3.4225012139      -13.6061151753
 C         0.0396630031       -4.5945869511      -11.5215247014
 C        -0.9196275096       -3.6550681289      -10.8332987517
 C        -2.4026179091       -4.1459092905      -11.1196228767
 O        -2.8241753397       -5.1470024566      -10.5847606779
 C        -3.3689668808       -3.4098390447      -12.3519254285
 C        -4.9158316755       -3.3258315640      -11.7928932877
 O        -5.3413833310       -2.1761230694      -11.8183001291
 C        -5.7969606394       -4.4392334960      -11.4003375216
 C        -5.5019175402       -5.0337942361       -9.9620020133
 C        -5.5680103355       -4.0911085801       -8.7919207760
 O        -5.9419349926       -2.9353146152       -9.0106563186
 C        -5.0970753059       -4.4912499111       -7.3472069370
 C        -4.8466455311       -3.1087526698       -6.3974303672
 O        -3.6830801918       -2.8296097152       -6.2079870996
 C        -6.1092112200       -2.3574473755       -5.7679940092
 C        -5.8545610815       -0.9277036500       -5.5512264795
 C        -7.0439834510       -0.3030325271       -4.6860667784
 O        -7.7778441712       -1.0894272904       -4.1191285128
 C        -7.2606808809        1.2241522533       -4.6684405746
 C        -7.2725613943        1.7221424816       -6.1112933810
 O        -6.2079484580        1.9351860292       -6.6799001186
 C        -8.5757034448        1.8166518771       -6.7893077488
 C        -8.5916738006        2.2401568189       -8.2873522982
 C        -7.7389728120        1.3072132087       -9.0888699439
 O        -7.7002771273        0.0844838794       -8.9051269998
 C        -6.5758095135        1.8567113388      -10.1120579752
 C        -7.0677416635        1.4490108480      -11.4856420559
 O        -6.9837758702        0.3171455344      -11.8210329815
 C        -7.9077433693        2.4527253258      -12.3341883430
 C        -8.2614209927        1.8804071750      -13.8221682091
 C        -9.6739442439        1.1750669375      -13.6832442763
 O       -10.5681156797        1.7356087217      -13.1007837620
 C        -9.7520075835       -0.4444520358      -14.0391774209
 C        -9.5555356901       -1.2985400619      -12.6431385635
 O        -8.7068894167       -2.1369321521      -12.4933407388
 C       -10.5337241720       -0.9284182424      -11.4628815792
 C       -11.2366811340       -2.2882173279      -10.8431719286
 C       -10.4601328150       -2.7684882166       -9.5750580817
 O        -9.2565113472       -2.9657174322       -9.5393597063
 C       -11.2416969479       -3.1283340966       -8.2853622698
 C       -11.9600809357       -1.7890526773       -7.7957219203
 O       -12.9627465948       -1.3442099298       -8.3258870923
 C       -11.4512972051       -1.2891209961       -6.4121817259
 C       -12.0549314795        0.0152520779       -5.9151509420
 C       -12.1540139813        1.1333581959       -7.1022903049
 O       -11.2947764759        1.2730433351       -7.9539148163
 C       -13.4209022276        2.0797150496       -7.2172720297
 C       -13.9204253524        2.3877584839       -5.7798820035
 O       -14.4695153081        1.4650125720       -5.1460674587
 C       -13.9494283507        3.8573097338       -5.2542609198
 C       -13.9092316713        3.7821852009       -3.7378885743
 C       -12.5218548512        3.5237043470       -3.1556920751
 O       -11.6502849982        3.0654988267       -3.8571371999
 C       -12.2823734767        3.7688942935       -1.7175460892
 C       -11.8097886162        5.4234780640       -1.5444972482
 O       -12.3016623726        6.2652016885       -2.2226132627
 C       -10.7505879320        5.6319318230       -0.4999314154
 C       -13.5540051620        3.6863735327       -0.7855610690
 C       -11.1005971917        2.8303163069       -1.1967122341
 C       -13.1663474141        3.3616670904       -7.9493950380
 C       -14.4522692036        1.1561155022       -7.8770349540
 C       -12.4181835672       -4.0856831749       -8.7244680498
 C       -10.2365628598       -3.6031066327       -7.1633503053
 C       -11.2638137766       -0.6379536911      -14.4018897610
 C        -8.7089475652       -0.9799064016      -15.0841121663
 C        -6.4400428056        3.3481450576       -9.8144052417
 C        -5.3323495990        1.0724027607       -9.8185002862
 C        -8.4209983093        1.6552677290       -3.8396928708
 C        -5.9235478355        1.8349423980       -3.9654284671
 C        -6.2077838922       -5.2681281284       -6.5616695026
 C        -3.8180434894       -5.3166943530       -7.3041607353
 C        -2.7992171921       -2.0564320734      -12.7967253289
 C        -3.4333528551       -4.3865520043      -13.5447289418
 C         1.4050364946       -4.9876199189      -15.1340820342
 C         1.2166010272       -6.7291596416      -13.2327927762
 C         5.9289431964       -4.3184196229      -10.3389061813
 C         8.0184666567       -2.9872236372      -11.0701004102
 C        11.6877268903       -7.4979825641      -13.9027071490
 C        12.1878019344       -5.5380972787      -12.2473615674
 C         8.5860572140       -0.9438546948      -17.7884846033
 C        11.0837608402       -1.3554166391      -18.1158569433
 H         9.9355825454        1.3574343791      -17.2245881796
 H        11.5124688524        0.7410139070      -16.8876063172
 H        10.5950938755        1.6433153026      -15.5997144667
 H        11.4866083470       -3.3374633426      -15.0550472545
 H        11.7653049409       -3.7970972420      -16.7858434481
 H        11.0649148201       -5.9665848457      -16.0616817762
 H         9.4021788104       -5.1990183373      -15.8283644480
 H         8.4245185740       -8.1999766947      -12.1878336077
 H         8.6018835300       -7.3237952298      -13.7052146090
 H         7.4755855322       -6.2281064944      -10.9895879524
 H         6.3950756359       -6.9002771302      -12.2557857883
 H         4.0995333409       -1.8234868235      -12.5394522995
 H         3.9733100906       -3.0896562928      -11.3917818512
 H         4.5687686338       -4.1141733196      -13.9866359281
 H         3.1309171336       -3.0504570584      -14.1799032026
 H         1.0343120968       -4.4542031456      -11.0559631532
 H        -0.1702710306       -5.5786779527      -11.3120015026
 H        -0.8491959227       -2.6118410544      -11.2562134454
 H        -0.7854365804       -3.6545515979       -9.7811459591
 H        -5.9521203186       -5.2790343886      -12.0979764909
 H        -6.8405084077       -4.0593247135      -11.3575945072
 H        -4.6079665000       -5.6709961312       -9.9500567240
 H        -6.2509615915       -5.8259304718       -9.6935617639
 H        -6.0808031150       -2.9847100554       -4.8541420650
 H        -7.0353225249       -2.6104779149       -6.2782416451
 H        -5.6183736859       -0.5084247444       -6.4867810745
 H        -4.8753192247       -0.8891051005       -4.9980270951
 H        -9.0975133362        2.5830633039       -6.2139665326
 H        -9.0677629284        0.9057362960       -6.6823358019
 H        -8.1418783377        3.1928929461       -8.2851504655
 H        -9.6070113887        2.2387356320       -8.6036508360
 H        -7.2549926340        3.3589793644      -12.3204097052
 H        -8.7255457010        2.8162127934      -11.7424153132
 H        -7.4150802031        1.1711799993      -14.0464758696
 H        -8.2127156524        2.6860624114      -14.5301481569
 H       -11.3240907556       -0.2040055653      -11.6748255464
 H       -10.0136374187       -0.6200202392      -10.5816014592
 H       -11.1762903580       -3.1858079005      -11.4174702284
 H       -12.2796224869       -2.1019001578      -10.6207373551
 H       -10.3669124814       -1.0731864306       -6.4720886430
 H       -11.6998834042       -2.0564928707       -5.6974038774
 H       -11.3703212600        0.3755168803       -5.1496268896
 H       -12.9982709006       -0.0629264133       -5.4565260580
 H       -14.8443488187        4.3835141735       -5.5863448873
 H       -13.0801256716        4.4684032425       -5.6041511580
 H       -14.5874991102        2.9899352538       -3.3955350882
 H       -14.3182392663        4.7083691280       -3.3176259080
 H       -10.9000538906        6.7020817350       -0.1546452542
 H        -9.7550932974        5.5722702452       -0.9036575635
 H       -10.8078219971        4.8908804430        0.3215654078
 H       -14.1305277824        2.7512666094       -0.8725307802
 H       -14.1652389117        4.4999619483       -1.1340680810
 H       -13.2797988599        3.9328006745        0.2565467907
 H       -11.2340141841        1.7800131538       -1.5427730480
 H       -11.1765223593        2.7657243048       -0.1062516285
 H       -10.1117361481        3.1777864698       -1.5202926495
 H       -12.9302324503        3.3118869186       -9.0085599964
 H       -12.3278224356        3.9630723118       -7.4808875609
 H       -14.0168945747        3.9775588672       -7.8557103154
 H       -14.3273348982        0.1272614109       -7.5546197112
 H       -14.1928736215        1.1491728293       -8.9165857023
 H       -15.4889040836        1.4496187456       -7.6503055230
 H       -12.9900900890       -3.4104307263       -9.3604872391
 H       -13.0344674964       -4.4238474821       -7.8816006639
 H       -12.1444084672       -4.8815529152       -9.3895121754
 H        -9.4988365296       -2.8492686844       -6.9662944764
 H        -9.7352058751       -4.5022593351       -7.3593448219
 H       -10.8124662569       -3.9099004530       -6.2833049606
 H       -11.5025417382       -0.0236318829      -15.2391979648
 H       -11.8760956395       -0.2655080664      -13.5755835581
 H       -11.4355164972       -1.6853338687      -14.6221542890
 H        -7.6493361286       -0.9718720404      -14.6689069028
 H        -8.7903849972       -0.2729521799      -15.8278907436
 H        -8.9580466009       -1.9460993089      -15.3635951671
 H        -5.5500452923        3.7381736486      -10.2154651971
 H        -6.3610788984        3.4695647522       -8.7830187923
 H        -7.2754583059        4.0346871968      -10.2120900119
 H        -5.5578738579       -0.0292064234       -9.8021114390
 H        -4.9697111459        1.2245751158       -8.8356042009
 H        -4.5149738945        1.1046454171      -10.5024400757
 H        -8.5489844844        2.7081194229       -3.7627129904
 H        -8.1074423085        1.3401864868       -2.7707408895
 H        -9.3969428296        0.9995024989       -3.9988513290
 H        -5.1123043518        1.2317017589       -4.2907652222
 H        -6.0311639438        1.9250811148       -2.9327695175
 H        -5.7346502751        2.8502735659       -4.3277418606
 H        -6.3719471483       -6.1259664511       -7.2758858984
 H        -7.1229980924       -4.7488829093       -6.3403957596
 H        -5.8048968615       -5.6544881620       -5.6822054264
 H        -4.0076186788       -6.3346375717       -7.0587957773
 H        -3.3302100189       -4.9697946865       -6.4336392324
 H        -3.1655545244       -5.1573827665       -8.1915958785
 H        -2.0952403847       -2.3776073572      -13.5308518526
 H        -2.3007863753       -1.5912041338      -11.9509824283
 H        -3.4991560979       -1.3685736703      -13.3364228741
 H        -4.1660206142       -4.1403762507      -14.3683405617
 H        -3.5182964772       -5.4383043207      -13.1495372224
 H        -2.4679207674       -4.3605249593      -14.1465530411
 H         2.3447316227       -5.1287702528      -15.7028558510
 H         1.1024272321       -3.9212823561      -15.3729393532
 H         0.6607835336       -5.5576270032      -15.7071870950
 H         0.2571255445       -6.8342389486      -12.7341979053
 H         1.9112604977       -7.1198515212      -12.5243762076
 H         1.1457885847       -7.3076665664      -14.1550929893
 H         5.1860731428       -4.8963128180      -10.8327114394
 H         5.5838813703       -3.4872343957       -9.7490217918
 H         6.5990306497       -4.9793283967       -9.6698825208
 H         8.8667356554       -3.6862270731      -10.8192847395
 H         7.8806197671       -2.3254160008      -10.1989643956
 H         8.3646744401       -2.3060805515      -11.8753025333
 H        10.9821489413       -7.9887391788      -14.5496465355
 H        11.9622437810       -8.3085555034      -13.2319852925
 H        12.5081412723       -7.1685467467      -14.4782802456
 H        12.4456927012       -6.0996300175      -11.3492670923
 H        11.7530028678       -4.5522565984      -11.8912263817
 H        13.1173738014       -5.3858293677      -12.6903821952
 H         8.8351090913       -0.1228080212      -18.3501754780
 H         7.8322408747       -0.7825068025      -17.0944684642
 H         8.3584745772       -1.6179060504      -18.6030501722
 H        12.0154117803       -0.9404586315      -17.7067523212
 H        10.6993412822       -0.5185367346      -18.7951773152
 H        11.3025526915       -2.3300339369      -18.6410663638
 Na        8.3769909703       -2.4490407635      -14.2159196913
 Na       -7.2115494625       -1.8036979036      -10.6405999754
