232

 C        10.4911312067        0.9910047199      -16.3615489005
 C        10.0906422602       -0.4094543397      -15.9697425379
 O         9.7227082270       -0.6189682950      -14.7933494795
 C         9.8831038689       -1.3971921685      -17.2086855505
 C         9.6735294569       -2.9762110066      -16.7516718637
 O         8.6056423641       -3.5660599442      -16.5860426497
 C        10.9119589694       -3.6889748728      -16.1294393903
 C        10.4947461819       -5.0780814488      -15.5497093159
 C        10.3335361460       -4.9850815392      -14.0415808315
 O        10.0442460272       -3.9696813331      -13.4923718944
 C        11.1108353848       -6.1622010616      -13.0998635913
 C        10.0529970015       -6.8186434269      -12.0822009314
 O        10.4674208189       -7.0931384180      -10.9506898854
 C         8.6416386183       -7.0804598776      -12.5671860206
 C         7.4907552141       -6.4251160683      -11.8348867575
 C         7.3362466821       -4.9465135879      -12.4545254049
 O         7.6155787306       -4.6504536193      -13.6454381393
 C         6.7781123328       -3.7470232656      -11.6326038765
 C         5.8660906874       -2.7567043934      -12.4989013914
 O         6.4859370577       -1.8591972982      -13.0716307162
 C         4.3569695000       -2.8160119691      -12.4425790556
 C         3.5073520893       -3.5369504029      -13.5158045403
 C         2.7484399865       -4.7284347607      -12.8273902108
 O         3.0617215247       -5.1854027858      -11.7875251707
 C         1.4845395927       -5.2393279278      -13.5751254640
 C         0.3397251983       -4.3829243344      -12.9535802186
 O        -0.2850590467       -3.5433513254      -13.6102650029
 C        -0.0589725475       -4.6073202120      -11.3873637982
 C        -1.1568921088       -3.6263326535      -10.9155899627
 C        -2.5349793808       -4.0940831730      -11.3436067722
 O        -2.9173545217       -5.0460393788      -10.7284352220
 C        -3.3871358817       -3.4289902925      -12.3841341867
 C        -4.9004155055       -3.2408099880      -11.6995760259
 O        -5.2800645775       -2.1176212546      -11.6717235429
 C        -5.8078517567       -4.4304009684      -11.2687838261
 C        -5.6393127302       -5.0241341451       -9.8499662218
 C        -5.6592032315       -4.0039841860       -8.6898693070
 O        -5.9679269377       -2.7953353146       -8.7820947572
 C        -5.1084359445       -4.5029893237       -7.2909724236
 C        -4.7998849969       -3.1040068992       -6.4641916729
 O        -3.6468513080       -2.8859359981       -6.2216879408
 C        -5.9578070308       -2.2683997942       -5.9640634802
 C        -5.7495727472       -0.8656892956       -5.3982925111
 C        -6.9784252711       -0.4327223590       -4.6464658411
 O        -7.7959818631       -1.1272279053       -4.1685355927
 C        -7.1683111172        1.2032963781       -4.5198498402
 C        -7.1972007562        1.7112015256       -6.0942539153
 O        -6.1937961043        1.9629574252       -6.6613005442
 C        -8.6126868441        1.7510851338       -6.8052677274
 C        -8.5570535542        2.1074212020       -8.3271332882
 C        -7.5544452000        1.1920627778       -9.0246516893
 O        -7.7788603466       -0.0120547528       -9.0275691192
 C        -6.5438243973        1.7855393965      -10.0187367230
 C        -7.1881831915        1.4482659238      -11.5623303137
 O        -6.9519625076        0.3099539643      -11.9417799608
 C        -7.7778545885        2.5022352812      -12.4963335125
 C        -8.3497852100        1.7717649538      -13.7751971547
 C        -9.6602529862        1.0267013413      -13.5663201137
 O       -10.6245794562        1.7038188239      -13.2936830645
 C        -9.8625481763       -0.4381573540      -13.9683445412
 C        -9.6621024857       -1.2580741352      -12.5549981141
 O        -8.7129256819       -1.9836118853      -12.5165078182
 C       -10.5666799898       -1.0022051550      -11.3895953470
 C       -11.0941799335       -2.3633926125      -10.8544118401
 C       -10.3364407148       -2.7896973129       -9.6355163023
 O        -9.1213838247       -2.8555460582       -9.5602008363
 C       -11.2447163776       -3.0616047416       -8.3268052841
 C       -12.0237424708       -1.7993168363       -7.8297196013
 O       -12.8149091342       -1.3093434509       -8.5744798272
 C       -11.5249033945       -1.2538352472       -6.4998200157
 C       -12.1517392375        0.0544738231       -6.0035734170
 C       -12.1239395425        1.1127269188       -7.0848543613
 O       -11.1259111468        1.1114000319       -7.7200659138
 C       -13.4173981147        2.0420228012       -7.2009395066
 C       -13.9857775799        2.3830177456       -5.7264744965
 O       -14.5543163228        1.5801035171       -5.0735404822
 C       -13.9691542000        3.7784830860       -5.1689958348
 C       -13.9746145839        3.6873015027       -3.6430985944
 C       -12.5550692375        3.4858496116       -3.1417914033
 O       -11.6633527865        3.1420791936       -3.9101030429
 C       -12.2574826918        3.8937342741       -1.5889084105
 C       -11.7990653357        5.3524661339       -1.4648006735
 O       -12.2059455345        6.2093712608       -2.2197131568
 C       -10.7584850897        5.7135689491       -0.4218738141
 C       -13.4847149749        3.6445623999       -0.7121650614
 C       -11.0746485179        2.9337254715       -1.1723845212
 C       -13.0880335702        3.3181606913       -7.9559026340
 C       -14.5577150976        1.2486858818       -7.8963592958
 C       -12.3004421094       -4.1669052640       -8.7624020795
 C       -10.3992649030       -3.8094539376       -7.2890807775
 C       -11.2892138127       -0.7338823580      -14.5875099865
 C        -8.8537782515       -1.0573231609      -14.8946498754
 C        -6.3222926108        3.3219627115       -9.8446251537
 C        -5.2113464637        1.0802897683       -9.8289793435
 C        -8.3915487017        1.5891619055       -3.6670665548
 C        -5.9017877889        1.9923082703       -3.9615333331
 C        -6.1925457884       -5.3630719820       -6.5875805229
 C        -3.8480541924       -5.3138608742       -7.3736162851
 C        -2.9620834366       -1.9695088316      -12.7951105261
 C        -3.4881336923       -4.3038540447      -13.6513514041
 C         1.5431535846       -5.1000840755      -15.1322755714
 C         1.3306451130       -6.7805702926      -13.2900689322
 C         5.9421136676       -4.2104026669      -10.4192107853
 C         8.0405360581       -2.9441619678      -11.1152516855
 C        11.6825101781       -7.3715497907      -13.8978786024
 C        12.3630875253       -5.6759829674      -12.3412215596
 C         8.5738491726       -0.9413694985      -17.8376797184
 C        11.1467169908       -1.3162695901      -18.0535037261
 H         9.6845044019        1.3235982302      -17.0191271500
 H        11.4079331140        0.9781167702      -16.9474237697
 H        10.5300348129        1.5981767775      -15.4037306983
 H        11.3890815671       -3.1735963453      -15.2941249509
 H        11.6471587820       -3.7870933157      -16.9331106111
 H        11.2098071891       -5.8642643073      -15.8754401730
 H         9.4672627954       -5.3079933060      -15.9745111922
 H         8.4163273840       -8.1951232949      -12.4887578369
 H         8.5277939065       -6.8558913751      -13.6559852304
 H         7.5966639368       -6.2754568038      -10.7530158373
 H         6.5939617508       -6.9491778066      -12.0778285258
 H         3.9863284133       -1.7733626119      -12.3567087771
 H         4.1382972433       -3.1805888555      -11.5009236451
 H         4.1697500208       -3.9232624165      -14.3061227418
 H         2.6881296670       -2.9110763606      -13.8710921348
 H         0.7770907675       -4.6088612791      -10.7340900045
 H        -0.4175531128       -5.6316107044      -11.2785220672
 H        -0.9823111781       -2.5699154402      -11.1293428585
 H        -1.2712701320       -3.7098136953       -9.8068292864
 H        -5.7920646599       -5.2839973898      -12.0158065317
 H        -6.8611462455       -4.1273642331      -11.3880097745
 H        -4.7441168306       -5.6466061328       -9.8109985381
 H        -6.3681882822       -5.7453517703       -9.5535341648
 H        -6.4120477537       -3.0113340914       -5.2604561699
 H        -6.5806573777       -2.2203769959       -6.7996341084
 H        -5.4687467222       -0.1589947269       -6.2532627712
 H        -4.8512510091       -0.8245786623       -4.7572285066
 H        -9.2262398941        2.4556751431       -6.3295891794
 H        -8.9954017808        0.7852474578       -6.7325797885
 H        -8.2331945073        3.0943152862       -8.3590268520
 H        -9.5682295964        1.8842402660       -8.7299616398
 H        -6.9876996092        3.2307449217      -12.6194441539
 H        -8.5115047557        3.0881985610      -12.0052634267
 H        -7.6210855448        1.2395749875      -14.3265873495
 H        -8.6233894090        2.5835979959      -14.4029886098
 H       -11.4180544582       -0.4370286928      -11.6436994607
 H       -10.0011932172       -0.5542368062      -10.5449386113
 H       -11.1391933642       -3.1101053559      -11.6243132572
 H       -12.0902643985       -2.1943188190      -10.4675115337
 H       -10.4681580915       -1.1076651803       -6.6024347920
 H       -11.7536820894       -2.0134650870       -5.7513643997
 H       -11.6550313032        0.3715040124       -5.0472273431
 H       -13.1794241206       -0.0496860052       -5.8078626560
 H       -14.8254969605        4.4090699631       -5.5160333687
 H       -13.0515537480        4.2957090650       -5.4932572234
 H       -14.5691091616        2.8449236851       -3.3137114935
 H       -14.4361804128        4.6235304079       -3.1933843551
 H       -10.7562224880        6.7996379227       -0.2817044597
 H        -9.7522119138        5.4915100345       -0.8246205731
 H       -10.8222045087        5.0947641731        0.5179510537
 H       -13.7111117792        2.5494808843       -0.8860305858
 H       -14.3230883061        4.2091198823       -1.1352842845
 H       -13.3552693779        3.9034292793        0.3474857944
 H       -11.2471430266        1.9023245195       -1.5110766567
 H       -10.9048988716        2.8741681978       -0.0242591366
 H       -10.1523030292        3.3502186906       -1.6714808905
 H       -12.8782115508        3.0717434420       -9.0138323501
 H       -12.3077409608        3.9043177267       -7.6130111146
 H       -13.9266005844        3.9252419713       -7.9436521585
 H       -14.9541314941        0.4776181837       -7.2686383918
 H       -14.0987983669        0.8011843155       -8.6759834927
 H       -15.3401112884        1.9068902107       -8.2036307335
 H       -13.0286279512       -3.8202044471       -9.4664267700
 H       -12.8083412399       -4.5618475670       -7.8515522448
 H       -11.7581808938       -4.9640867200       -9.3291372311
 H        -9.4460142550       -3.2244147650       -7.1568684433
 H       -10.0132797968       -4.7731767391       -7.6750934084
 H       -10.8868543937       -4.0868995550       -6.3417863165
 H       -11.2626607053       -0.1519734669      -15.4952598732
 H       -12.1035519732       -0.3834783234      -14.0082442415
 H       -11.3643058219       -1.7231799467      -14.8271272471
 H        -7.8583468746       -1.0989230117      -14.5134204000
 H        -8.9399950364       -0.4387258252      -15.8130564539
 H        -9.1747828403       -2.0635396179      -15.0360763460
 H        -5.4756719226        3.5906020784      -10.4121705433
 H        -6.1013510288        3.5838849697       -8.8424425619
 H        -7.0880908574        3.9628366255      -10.2093768357
 H        -5.3269437792       -0.0095426415       -9.8599129486
 H        -4.7199579687        1.2334681965       -8.8198712377
 H        -4.4400701472        1.2508371501      -10.5990099530
 H        -8.5394186083        2.7643810366       -3.5784117996
 H        -8.3449751685        1.2117968716       -2.6063831156
 H        -9.2744677711        1.0168157199       -4.0995381854
 H        -5.0770792886        1.7077978106       -4.5731901568
 H        -5.8027103967        1.9017459873       -2.8829850412
 H        -6.0662412289        3.0708091613       -4.1630046627
 H        -6.3570538410       -6.1829869719       -7.2488463192
 H        -7.1352883006       -4.8196381248       -6.3137834756
 H        -5.7762335793       -5.7268551015       -5.6704303284
 H        -4.0989793710       -6.3007624221       -7.7504912711
 H        -3.5561681467       -5.5160297018       -6.3243797696
 H        -3.0832061277       -4.8179751881       -7.9299463246
 H        -2.5426474904       -1.9478205168      -13.8601707484
 H        -2.3040601230       -1.5680541888      -12.0393325362
 H        -3.8434431223       -1.3408086007      -12.8139485508
 H        -4.2211652616       -3.8170255853      -14.3410406366
 H        -3.5866829472       -5.3843485535      -13.5952821628
 H        -2.5389284509       -4.0839527994      -14.2525862940
 H         2.4962597297       -5.5796623192      -15.5568269675
 H         1.6033328765       -4.0358364250      -15.5243562937
 H         0.7255229874       -5.5458601037      -15.7781201845
 H         0.3302138415       -7.0850173350      -12.9206382859
 H         2.0179659253       -7.0100880503      -12.4210607869
 H         1.5779071223       -7.3505470190      -14.1942337098
 H         5.4463006494       -5.1622291803      -10.6537194528
 H         5.2644562630       -3.4408558949      -10.1069779559
 H         6.6505325330       -4.2810957320       -9.5940302709
 H         8.7961893299       -3.6864082762      -10.7606675883
 H         7.8623725080       -2.3301016895      -10.2942173097
 H         8.5259774937       -2.2495503381      -11.8730343264
 H        11.2453412604       -7.7458988297      -14.7458363072
 H        11.6502042702       -8.2810623929      -13.2565952514
 H        12.6764490955       -7.1235369345      -14.0963998528
 H        12.6172875837       -6.3450449598      -11.4764919818
 H        12.2689629936       -4.7129273615      -11.9348561220
 H        13.2363726001       -5.6846080593      -12.9422962854
 H         8.7092581261        0.0092532721      -18.4218935266
 H         7.8427855242       -0.8759868470      -17.0247248503
 H         8.2886629360       -1.6060960246      -18.6166635128
 H        12.1095891155       -1.3973011852      -17.4386385406
 H        11.1303724001       -0.2794319889      -18.3798144724
 H        11.1606836905       -2.0367068704      -18.8844467660
 Na        8.5228631131       -2.5651732882      -14.3365393362
 Na       -7.1987337834       -1.7192665484      -10.4815196719
