232

 C        10.4766911677        0.9790328605      -16.0666596876
 C         9.9071253625       -0.3986447566      -15.9493708950
 O         9.5387863896       -0.8553700675      -14.8913977703
 C         9.8610676444       -1.3295453036      -17.2254963895
 C         9.6162602449       -2.8338560248      -16.7388042223
 O         8.4990484353       -3.2597747738      -16.8208242603
 C        10.8914590540       -3.7639632902      -16.4316788575
 C        10.7759977490       -4.9922518231      -15.4572590762
 C        10.7578865735       -4.9706352887      -13.9228701572
 O        10.2451498493       -3.9914844076      -13.2817869428
 C        11.2980613411       -6.2077637647      -13.1799324355
 C        10.1572671755       -6.6623493378      -12.1701898451
 O        10.4412211652       -6.8246168913      -11.0238861591
 C         8.7299147546       -7.0031289368      -12.6052770289
 C         7.7835964967       -6.1344533274      -11.6828875366
 C         7.2144308615       -4.8970762631      -12.5303339889
 O         7.2770431272       -4.8012839264      -13.7038502474
 C         6.7882704902       -3.6936433574      -11.6165764981
 C         5.9032113879       -2.7699141580      -12.5398293925
 O         6.4314225654       -2.1799391906      -13.4404812932
 C         4.3455004576       -2.4723613263      -12.3911925720
 C         3.4757575214       -3.3107829528      -13.3320137847
 C         2.8242744561       -4.6016864621      -12.7026655452
 O         3.1029069089       -4.9957323858      -11.5647721863
 C         1.5200266158       -5.3512870341      -13.4491195166
 C         0.2769270598       -4.5395109414      -12.9218861610
 O        -0.3415950835       -3.8746904167      -13.6910351639
 C        -0.1912498313       -4.7011078865      -11.4894746480
 C        -1.2539762139       -3.6666547093      -11.1905465876
 C        -2.6219604236       -4.1042880840      -11.5737477028
 O        -3.0264870558       -5.1746375729      -11.1353785471
 C        -3.6380276073       -3.1929035783      -12.3831833385
 C        -4.9503019569       -3.1208217786      -11.5430129809
 O        -5.2542505989       -1.9978111612      -11.1806435905
 C        -5.7997216035       -4.4495308109      -11.3058945047
 C        -5.9345971996       -4.8797514125       -9.8293791734
 C        -5.6879247016       -3.9038056347       -8.6175671300
 O        -6.0315074867       -2.7472057879       -8.7315614477
 C        -5.1212189827       -4.3551134392       -7.2893402187
 C        -4.7451501317       -3.0925409416       -6.3638814833
 O        -3.5706863768       -2.8239347059       -6.1664257963
 C        -5.9151808565       -2.1431157709       -5.9170631434
 C        -5.3659043134       -1.0287286070       -5.0109808558
 C        -6.7586264872       -0.2643362882       -4.6705887630
 O        -7.7110398281       -1.0016474762       -4.3508204581
 C        -7.0003826700        1.2290926955       -4.5192655352
 C        -7.1941924368        1.6104723138       -6.0063571783
 O        -6.1974349712        2.0026110676       -6.6633669312
 C        -8.5395360377        1.4869109530       -6.7623962691
 C        -8.3567122112        2.1732152555       -8.1665729690
 C        -7.5647732657        1.2442567985       -9.0528762496
 O        -7.8121273907        0.0479767285       -9.0547500343
 C        -6.4739517982        1.7173154344      -10.2174341689
 C        -7.0026224718        1.2628373002      -11.5648488515
 O        -6.9993633599        0.1216140907      -11.9621844054
 C        -7.7202171711        2.3481359832      -12.5796023609
 C        -8.4124998452        1.7138423424      -13.8147858249
 C        -9.7662952990        1.0239598059      -13.6396599265
 O       -10.7459807775        1.6578879908      -13.3461126850
 C        -9.8403432786       -0.4747604376      -14.0735076073
 C        -9.6138231568       -1.1083312789      -12.5269542553
 O        -8.6438015824       -1.8013664307      -12.2520990735
 C       -10.6858868133       -0.9842458445      -11.5037517263
 C       -11.0966050405       -2.3930103477      -10.9145276570
 C       -10.3081470266       -2.8807833414       -9.5624263768
 O        -9.1452833479       -2.7307628792       -9.2978840626
 C       -11.1950384913       -3.3684386239       -8.3606490278
 C       -11.8318865490       -2.0569997764       -7.9268577969
 O       -12.4171490410       -1.3240332971       -8.7395099240
 C       -11.5362415669       -1.4608141953       -6.5241457972
 C       -12.6344892743       -0.3941616517       -6.2222488542
 C       -12.4689871486        1.0007152770       -6.9379506124
 O       -11.3905226360        1.2511556667       -7.4959515477
 C       -13.5788074204        2.0946127258       -7.1679157516
 C       -14.0852815339        2.4383358767       -5.7179493764
 O       -14.6309173993        1.4517329010       -5.1610914194
 C       -14.0165383397        3.8062152327       -5.1062870708
 C       -13.9339681092        3.9084324940       -3.5424605646
 C       -12.4703708367        3.5664502370       -2.9899297079
 O       -11.6259651572        3.2367241884       -3.7702469183
 C       -12.0519957948        3.8529695260       -1.4470153763
 C       -11.8057244884        5.3786953842       -1.4112213912
 O       -12.1568050061        6.1637415248       -2.2530985715
 C       -10.8853336038        5.8788636647       -0.3174094418
 C       -13.3159250894        3.5332017143       -0.4924026903
 C       -10.8835673806        2.8739158461       -1.0944987603
 C       -12.8869039917        3.2324123371       -7.9061263810
 C       -14.6033665798        1.3685498122       -7.9772721412
 C       -12.3501403692       -4.2895030691       -8.9421425819
 C       -10.3469146906       -4.0644261398       -7.3086803471
 C       -11.3232461166       -0.7550095666      -14.4923055742
 C        -8.7331602232       -1.0721017858      -15.0296110856
 C        -6.2668076216        3.2244017781      -10.0974779063
 C        -5.1351690903        1.0140367192       -9.9933565861
 C        -8.3407355863        1.4065848221       -3.6899171854
 C        -5.7578841263        1.9563329352       -3.8058399957
 C        -6.2111321422       -5.2432372417       -6.6540478922
 C        -3.8036391643       -5.2419010200       -7.4666375621
 C        -3.0792306478       -1.8461013201      -12.8735046631
 C        -3.7914655632       -4.0901390494      -13.6937320261
 C         1.5600047943       -5.1205754147      -14.9974958767
 C         1.4325456597       -6.8920111501      -13.0928404546
 C         6.0182341208       -4.2165603844      -10.4113651694
 C         7.9973324847       -2.9336719315      -11.1218401236
 C        11.3949424771       -7.4000740806      -14.1462308553
 C        12.4916932852       -5.5314516044      -12.3422705508
 C         8.6500731118       -1.0168679174      -18.1065105476
 C        11.0718802487       -1.3452934738      -18.1839899046
 H         9.8665155898        1.5842086548      -16.7356303530
 H        11.4811469833        0.8725337148      -16.5472242509
 H        10.5211275102        1.2926064628      -15.0697682839
 H        11.8512678697       -3.3224223467      -16.1849487760
 H        11.0163990060       -4.2039994845      -17.4198138983
 H        11.6192030809       -5.5576280952      -15.7829796787
 H         9.8985424869       -5.5416764620      -15.7084458459
 H         8.4473835043       -8.0121745704      -12.4661551893
 H         8.6528789428       -6.7089330827      -13.6547260178
 H         8.3386658717       -5.6220303106      -10.9062435519
 H         6.9104972628       -6.6849245240      -11.2411004600
 H         4.1186633567       -1.4130238427      -12.5860470864
 H         4.0167409575       -2.4707497201      -11.2478418256
 H         4.0203692389       -3.5690857379      -14.2658650044
 H         2.5331624772       -2.7043887640      -13.5886301731
 H         0.6675080636       -4.4622657265      -10.7671705111
 H        -0.3497484469       -5.7659653333      -11.2408073632
 H        -1.0393841728       -2.7192867632      -11.7336410009
 H        -1.2293232204       -3.3635865212      -10.1521681806
 H        -5.3728572539       -5.2630797616      -11.8312747997
 H        -6.7777059408       -4.4401038104      -11.7694933966
 H        -5.5271720840       -5.8766576387       -9.6656909080
 H        -6.9942247065       -5.1335619169       -9.5769367824
 H        -6.7869529026       -2.6054454345       -5.4822442926
 H        -6.1017499367       -1.7749388444       -6.9846855234
 H        -4.6072897196       -0.4044922716       -5.3731525205
 H        -4.9046381258       -1.5057115908       -4.1134885578
 H        -9.2631398511        2.2002374914       -6.2247652825
 H        -8.8917383521        0.3892289229       -6.7891484645
 H        -7.6784883471        3.0507197033       -7.8523536428
 H        -9.3382246893        2.4225020858       -8.5883830725
 H        -6.9162185735        3.0105746363      -12.9444493734
 H        -8.3468008210        3.1163705508      -12.0568627490
 H        -7.7112834415        0.9178667666      -14.2227230987
 H        -8.3083342360        2.4940564506      -14.6013976550
 H       -11.6197436952       -0.5132175109      -11.9398391338
 H       -10.1435173035       -0.3876843830      -10.7643505876
 H       -11.0728571227       -2.9623190810      -11.8892851112
 H       -12.1576726516       -2.3881495967      -10.5782117625
 H       -10.4857373198       -1.0613610136       -6.4272152690
 H       -11.6973423751       -2.3005193672       -5.8428286663
 H       -12.5648183590       -0.0785905951       -5.1820047778
 H       -13.6867742399       -0.8075695545       -6.3884387263
 H       -14.9708890516        4.2441396703       -5.3502004910
 H       -13.2320145671        4.4011676455       -5.5857310498
 H       -14.8141496982        3.4416563537       -3.0217667912
 H       -13.9476556222        4.9705632455       -3.3969047498
 H       -10.5700230552        6.9132172360       -0.4815225146
 H        -9.9807759262        5.3013735204       -0.3532184405
 H       -11.2929991032        5.6114767250        0.6201899320
 H       -13.6394135583        2.5232955695       -0.5287104003
 H       -14.1471014869        4.1760126370       -0.7767928190
 H       -12.9782227187        3.8031325969        0.5117761357
 H       -11.4020619131        1.9184205275       -0.9216008027
 H       -10.3797335946        3.1391521796       -0.2162658132
 H       -10.1567220682        2.8025976500       -1.8735547819
 H       -12.4545486165        2.7357927945       -8.7593087101
 H       -12.0081436504        3.5977166189       -7.2338295986
 H       -13.4316836829        4.1366126254       -8.2512132915
 H       -15.4986112942        1.1945913476       -7.3579235495
 H       -14.2343390848        0.3591142803       -8.3334061795
 H       -14.8053652408        1.9847103732       -8.8939866215
 H       -12.9672257022       -3.6837482910       -9.6573115956
 H       -13.0765660098       -4.6740855935       -8.2381121214
 H       -11.9134708886       -5.0106783106       -9.5943696776
 H        -9.5374130879       -3.3774843214       -7.0535679582
 H        -9.7693653427       -4.9196125974       -7.7107654058
 H       -10.8914018941       -4.3914157732       -6.3740309262
 H       -11.4872548263       -0.4209182643      -15.5040506191
 H       -12.0623623740       -0.2372682491      -13.8422658725
 H       -11.4383229556       -1.8908274936      -14.4457901957
 H        -7.6737335350       -1.0321022141      -14.5429139222
 H        -8.8128186483       -0.6462793197      -16.0119487694
 H        -8.9506478429       -2.1720170930      -15.0208741751
 H        -5.7834585617        3.7247933054      -10.9492388522
 H        -5.7212533563        3.4999958089       -9.1978757049
 H        -7.3126943503        3.7458626220      -10.0702250652
 H        -5.1646887748       -0.0647017817      -10.2665648628
 H        -4.7134824811        1.0309857504       -9.0170114695
 H        -4.3495083242        1.4393750860      -10.6416826617
 H        -8.4635183578        2.3691545738       -3.6724569198
 H        -8.3111487740        1.0260353617       -2.7217314031
 H        -9.1452122708        0.9077196613       -4.1673457085
 H        -5.1423661979        2.4070654148       -4.6432060823
 H        -5.2739670963        1.2170822424       -3.1474375231
 H        -6.1057194133        2.7952549369       -3.1740445637
 H        -6.3174527235       -6.2186129299       -7.2109300511
 H        -7.1326312871       -4.7241270917       -6.5997417788
 H        -5.8983687211       -5.3566910301       -5.6112535421
 H        -3.5933146038       -5.5204690825       -8.5116485607
 H        -3.9116105610       -6.1136707916       -6.8603059938
 H        -2.9621904349       -4.6289432994       -7.0227645986
 H        -2.2168610053       -2.0340392498      -13.4293173442
 H        -2.9380061188       -1.1243760330      -12.0431524046
 H        -3.8523556072       -1.3868903386      -13.5236417514
 H        -4.4607260344       -3.6657617426      -14.3817886781
 H        -4.2675954161       -5.0042661327      -13.3757792423
 H        -2.9057389821       -4.4402195327      -14.1164212752
 H         2.2786614068       -5.6718046394      -15.4978485577
 H         1.7905854913       -4.1183417493      -15.2590771472
 H         0.6827961008       -5.4060559096      -15.4898856041
 H         0.8118414667       -7.4782575527      -13.7835460311
 H         1.0896839752       -7.0458799648      -12.0932784576
 H         2.4799874293       -7.2675653588      -13.1799424417
 H         5.0485904067       -4.5168381283      -10.7296613235
 H         5.9317893601       -3.3801911721       -9.7080483029
 H         6.6473031609       -4.9650503196       -9.8797025417
 H         8.4971434992       -3.4524472677      -10.3467352226
 H         7.6980468772       -1.9780609829      -10.6244561801
 H         8.5922727973       -2.6013544981      -11.9021969733
 H        10.4241410990       -7.8790825535      -14.4909540029
 H        11.7801829221       -8.2514483903      -13.6077090775
 H        12.0855398279       -7.2775568196      -15.0320623086
 H        13.0635440488       -6.3547774538      -11.9478990678
 H        12.3529753620       -4.7944369506      -11.4721279296
 H        13.2116007241       -5.0670163245      -13.0452890481
 H         8.7472953247       -0.0120831076      -18.5331356353
 H         7.7596892625       -1.1244012702      -17.4422268196
 H         8.5631607840       -1.7402036533      -19.0109456092
 H        11.8236584969       -1.9018536440      -17.7625346850
 H        11.5439237065       -0.3964577440      -18.4577528186
 H        10.7847553852       -1.8401518688      -19.1243375525
 Na        8.3861617409       -2.7497614475      -14.3014432017
 Na       -7.3678139846       -1.6177333552      -10.4220045844
