232

 C        10.4872483631        0.9015706887      -15.9995266041
 C         9.9796292859       -0.5324812207      -15.9839872623
 O         9.4011435057       -0.9443239779      -14.9732453375
 C         9.8625168466       -1.4335792420      -17.3591306714
 C         9.6139222621       -2.8722863859      -16.8839407842
 O         8.5008225400       -3.3200542877      -16.5764588744
 C        10.8712635723       -3.6642109384      -16.4399107907
 C        10.7446279456       -4.9791082298      -15.6004874390
 C        10.6634424823       -4.8853335811      -14.0458719338
 O        10.3113647329       -3.8891088941      -13.3668919086
 C        11.2568730260       -6.2036332310      -13.2914438541
 C        10.2670620508       -6.6074103189      -12.1358919946
 O        10.6041605388       -6.6060204873      -10.9413674239
 C         8.8047260379       -6.8689067524      -12.6103216237
 C         7.8156342392       -6.0948043461      -11.8177881831
 C         7.2977700174       -4.7854721419      -12.4787214957
 O         7.0840626659       -4.8242466703      -13.7053073748
 C         6.6679552148       -3.6006164147      -11.5900580495
 C         5.8129515749       -2.7533467708      -12.5669341309
 O         6.2482240108       -2.4205022456      -13.6643353725
 C         4.3541528442       -2.4616662802      -12.2686517408
 C         3.4700328115       -3.3029992443      -13.1985752575
 C         2.8087052206       -4.5177864522      -12.5833636861
 O         3.1354495679       -4.9185124014      -11.5055786610
 C         1.7101148869       -5.2334416870      -13.3918614619
 C         0.3379526328       -4.6182637972      -12.9900241135
 O        -0.3961517033       -4.0399370097      -13.8126794001
 C        -0.2060798635       -4.7193479026      -11.5282865626
 C        -1.2530252696       -3.5941728320      -11.2010077687
 C        -2.6494126305       -4.1838990218      -11.6129783759
 O        -2.9934351641       -5.2826684254      -11.3126511198
 C        -3.6934367742       -3.2908300825      -12.4219346750
 C        -4.9424567351       -3.1137996166      -11.4896590620
 O        -5.1763131735       -2.0376358777      -11.0111963747
 C        -5.8125779586       -4.2853942040      -11.3067287181
 C        -6.0797925713       -4.8405063371       -9.8565329717
 C        -5.7485447117       -3.8169423732       -8.7753992869
 O        -6.0905081380       -2.6385938410       -8.8194983357
 C        -5.0848299382       -4.2750363065       -7.3387575118
 C        -4.6580747338       -2.9612661616       -6.5030252122
 O        -3.5361532170       -2.8454138403       -6.0602183523
 C        -5.7329482217       -2.1157753195       -5.8495766711
 C        -5.3983632648       -1.0797220927       -4.7871387719
 C        -6.8055586638       -0.3688416978       -4.4246354061
 O        -7.7019324903       -1.1124439276       -4.4696129561
 C        -6.9295237048        1.1848676762       -4.4911660816
 C        -7.0249102945        1.6749037358       -6.0056110109
 O        -6.0541666658        1.9955173758       -6.6065185095
 C        -8.3028439639        1.5598248247       -6.8042959425
 C        -8.2660551890        2.3141799026       -8.2244096703
 C        -7.4997728080        1.3502075594       -9.0623368943
 O        -7.8229488790        0.1424115918       -8.9690542327
 C        -6.5920648758        1.8178047453      -10.2304324556
 C        -7.2197711811        1.1879686286      -11.6182178797
 O        -6.9327600272        0.0998108407      -11.9707418833
 C        -7.7915602113        2.2243900958      -12.5250196746
 C        -8.2834579644        1.7991146106      -13.9404587672
 C        -9.6992604821        1.0065945273      -13.7477314857
 O       -10.6029824617        1.6542371945      -13.3090008554
 C        -9.8122548932       -0.5312253445      -13.9119302162
 C        -9.6069872005       -1.1747594599      -12.5538219413
 O        -8.5849602483       -1.7797532749      -12.4497991599
 C       -10.7282150497       -1.0460872018      -11.4554751988
 C       -11.0506787078       -2.4830818809      -10.8696958893
 C       -10.3848762614       -2.8210358972       -9.5581475152
 O        -9.1963540967       -2.6989296030       -9.3197359858
 C       -11.2097830889       -3.4460004037       -8.4532553392
 C       -11.7896508834       -2.0776907057       -7.9285903679
 O       -12.3203892851       -1.4139410340       -8.7594924967
 C       -11.7166577304       -1.4673318223       -6.4837873326
 C       -12.8513117240       -0.4968406468       -6.3347161431
 C       -12.4193458796        0.8624852157       -6.9747527909
 O       -11.2953082304        1.0996672808       -7.2846339808
 C       -13.5710434408        1.9669389210       -7.1951356678
 C       -14.1785622478        2.3795445545       -5.6275503988
 O       -14.6988881357        1.5076534995       -5.0040168611
 C       -14.0596488532        3.8817006775       -5.0862886240
 C       -13.7824420327        3.9615931138       -3.5466196527
 C       -12.4351323750        3.5632587018       -3.0306287591
 O       -11.5320839534        3.1770248618       -3.7291200085
 C       -12.1045612046        3.7684421839       -1.4850822975
 C       -11.7030525546        5.3532962048       -1.4134568252
 O       -12.2076068078        6.0742650590       -2.2405716904
 C       -10.9023528295        5.9553014003       -0.1782989463
 C       -13.2285685771        3.5803100352       -0.4059642315
 C       -10.9159762411        2.9487450899       -1.1432825952
 C       -12.9289401577        3.2679510435       -7.7256823770
 C       -14.7974962492        1.4445988120       -8.1170590588
 C       -12.4105653109       -4.3632888907       -8.9540959755
 C       -10.3719060551       -4.1308023359       -7.3964139991
 C       -11.2203878577       -0.8586669763      -14.4162139491
 C        -8.8344350154       -0.9981976040      -14.9691273988
 C        -6.3587774918        3.2876579439      -10.2190643998
 C        -5.2097785679        0.9781131237      -10.0110240412
 C        -8.2258108090        1.4406822728       -3.7370697059
 C        -5.7213163673        1.8890257560       -3.8173564439
 C        -6.1570560794       -5.1455618403       -6.6150694177
 C        -3.7692939278       -5.1938744951       -7.4422010367
 C        -3.1489018585       -1.8771422017      -12.8246816737
 C        -4.0564982575       -3.9661086670      -13.7841312945
 C         1.6388642086       -5.1874233386      -14.9118620137
 C         1.6003454909       -6.6951212493      -12.9282545046
 C         5.8191612777       -4.1849573462      -10.3798396738
 C         7.9866217890       -2.8301471665      -11.1439656344
 C        11.5552147971       -7.4046144767      -14.0600428977
 C        12.5351950193       -5.8239567488      -12.5041008761
 C         8.6348293925       -0.8073870483      -18.2309108274
 C        11.1424477928       -1.1632022797      -18.2566184292
 H         9.9299990423        1.3736953454      -16.7154751772
 H        11.5209405400        0.8943283379      -16.3412464607
 H        10.3434932089        1.2784756678      -14.9972595896
 H        11.6770117639       -3.0676761444      -15.9393320345
 H        11.3409612264       -4.0224773663      -17.4186297287
 H        11.6805100976       -5.4631768229      -15.8225766666
 H         9.9923108325       -5.6212342944      -16.0431658554
 H         8.5439834089       -7.8593744209      -12.2870410211
 H         8.8119084018       -6.7592093617      -13.6933047813
 H         8.2927178104       -5.7947705043      -10.8710061090
 H         6.8388910823       -6.6333982744      -11.6338641897
 H         4.0339751407       -1.4155251064      -12.4240830739
 H         4.1598477934       -2.5013167151      -11.2498624375
 H         4.0083289888       -3.6909976050      -14.0248693915
 H         2.7301568796       -2.6028330400      -13.6144890151
 H         0.5725319522       -4.7622727256      -10.7124980560
 H        -0.6681103979       -5.6705769168      -11.3778443297
 H        -1.0843181319       -2.5722584580      -11.6042291973
 H        -1.2476726580       -3.3916665331      -10.1567796853
 H        -5.6007034605       -5.1178793282      -11.9786934379
 H        -6.8015379419       -3.9819518123      -11.6370194520
 H        -5.5695275690       -5.7947407133       -9.5843894363
 H        -7.1539557260       -5.1766317750       -9.7164293170
 H        -6.2607886866       -2.9334989194       -5.2848659478
 H        -6.4069181162       -1.7511817945       -6.6161783111
 H        -4.8308051964       -0.2743930973       -5.1487078052
 H        -4.7746072147       -1.4385415833       -3.9621042861
 H        -9.2240933247        1.8712746092       -6.2237195338
 H        -8.3230814381        0.4696393141       -7.0099833791
 H        -7.7842670381        3.2283960061       -8.0680197470
 H        -9.2910617772        2.3628442030       -8.6138181980
 H        -7.0269889705        3.0731437275      -12.5933777390
 H        -8.5572741976        2.7515143106      -11.9429537528
 H        -7.4371074764        1.2638639982      -14.5183488009
 H        -8.3015575287        2.7609805108      -14.4807725941
 H       -11.6696475356       -0.6949817265      -11.8826198781
 H       -10.2667857631       -0.4125610983      -10.6839433543
 H       -10.7317906661       -3.1349779525      -11.7123009818
 H       -12.1241142662       -2.6764914651      -10.7079047916
 H       -10.6937485081       -0.9347254034       -6.4317843868
 H       -11.7566590567       -2.2787969779       -5.7510482535
 H       -13.1660410116       -0.2575438251       -5.3119922944
 H       -13.6880502358       -0.8681102652       -6.8257600715
 H       -14.9513277198        4.4288921951       -5.3213706876
 H       -13.1951158034        4.3271588476       -5.5810283798
 H       -14.4794617474        3.3791859678       -2.9751536074
 H       -13.8411471887        5.0235788584       -3.2523529175
 H       -10.6930964937        6.9772413937       -0.4547446694
 H        -9.9788765058        5.5357661483        0.1004182380
 H       -11.5809814234        5.8262663881        0.6841386034
 H       -13.7077027069        2.6024658668       -0.3881313117
 H       -13.9814961380        4.2953037117       -0.4880278310
 H       -12.6713790182        3.7205654676        0.4981971116
 H       -11.1928965148        1.9897588310       -0.8552805896
 H       -10.4307688364        3.4500344250       -0.3309830282
 H       -10.2125491809        2.9417374162       -1.9045915123
 H       -12.4025470039        3.1626376676       -8.7873737220
 H       -12.1805893877        3.6631015719       -6.9791616353
 H       -13.6722422099        4.0464611087       -7.8124816816
 H       -15.7258579557        1.3071371747       -7.4175278782
 H       -14.5545626906        0.4871419152       -8.5401389388
 H       -14.9882365921        2.1573274215       -9.0156232163
 H       -13.1527612368       -3.8182795773       -9.4859421329
 H       -12.9983960498       -4.7763137350       -8.1261082806
 H       -12.0404621635       -5.0943261897       -9.6369717751
 H        -9.6897117818       -3.4798138025       -6.9088491765
 H        -9.7622569659       -4.9079772921       -7.7463222523
 H       -11.0975549717       -4.5004603305       -6.6709943495
 H       -11.3705655937       -0.7088494771      -15.5339351109
 H       -11.9944731214       -0.2608076533      -13.8192896911
 H       -11.3225880624       -1.9188841599      -14.1703569831
 H        -7.7502214633       -1.0998785620      -14.6906721593
 H        -9.0810357486       -0.3239011776      -15.7960852739
 H        -9.1814741635       -1.9529131758      -15.2625732487
 H        -5.7252374389        3.5862161432      -11.0846657319
 H        -5.8491621406        3.6772037163       -9.3222157546
 H        -7.3348458209        3.8911240339      -10.3924784142
 H        -5.3774169952       -0.0611174031      -10.2268499375
 H        -4.8900562507        0.9674904021       -8.9803919446
 H        -4.3457327687        1.2939543659      -10.5104597425
 H        -8.4206486405        2.5746841655       -3.7952579556
 H        -8.0205187614        1.1392111232       -2.7649435917
 H        -9.0429896634        0.8382640865       -4.0830269420
 H        -5.2957051298        2.4662869288       -4.6227625273
 H        -5.0823159187        1.1684322485       -3.3640039896
 H        -6.0990622582        2.6359787759       -3.0601241207
 H        -6.3470891933       -6.0518006072       -7.2433940204
 H        -7.0622752064       -4.5266424807       -6.7205315382
 H        -5.9696627721       -5.3154660323       -5.6037068439
 H        -3.2542575155       -5.1659912633       -8.3927058646
 H        -4.0118640150       -6.2037367321       -7.1377691572
 H        -3.1156440653       -4.7958145554       -6.6166493527
 H        -2.0460262301       -1.8484318472      -12.8960299857
 H        -3.4966740134       -1.1881330321      -12.0992952813
 H        -3.5938508781       -1.5155966039      -13.7474169018
 H        -4.8947404003       -3.4165413196      -14.1970283974
 H        -4.5222732372       -4.9172872891      -13.6289358305
 H        -3.2124856030       -4.2715725793      -14.4103117755
 H         2.3893231691       -5.6316964201      -15.4796950534
 H         1.5655483404       -4.2271496840      -15.3178711457
 H         0.8219996607       -5.7689520491      -15.1753317765
 H         1.4542771304       -7.2612035572      -13.8115305695
 H         0.8146881002       -6.9024267922      -12.2406534126
 H         2.5324860573       -7.0221676360      -12.5158728916
 H         4.7710489614       -4.2448309355      -10.6127352997
 H         5.9130426255       -3.5008404865       -9.5681224244
 H         6.3190941104       -5.1458123142      -10.0209507540
 H         8.4588774457       -3.3823928296      -10.3130836512
 H         7.8663984984       -1.8788279231      -10.7343038561
 H         8.6452648136       -2.6322136796      -12.0411266361
 H        10.7233106961       -8.0295113327      -14.4119554420
 H        12.1140528832       -8.1608934405      -13.3792947408
 H        12.2247884893       -7.2518536585      -14.9158046221
 H        13.0603004098       -6.8469290840      -12.2984856711
 H        12.4312854100       -5.3470707053      -11.4899962919
 H        13.2357047840       -5.1999380214      -12.9845843538
 H         8.7395447671        0.2413963114      -18.5377904334
 H         7.7774693077       -0.9600738433      -17.6244299110
 H         8.5268800646       -1.4488341182      -19.0961150204
 H        12.0954701518       -1.3032257030      -17.6803595142
 H        11.1740010440       -0.1230299331      -18.6534199975
 H        11.1796563986       -1.7748562825      -19.1765825884
 Na        8.3086822468       -2.9459500307      -14.2503852676
 Na       -7.4676436088       -1.7052904656      -10.4028323582
