232

 C        10.5228759863        0.7586992394      -16.0269160969
 C         9.7944806183       -0.6062041814      -16.1068293987
 O         9.3319841973       -1.0640974894      -15.0797176028
 C         9.8396512225       -1.4535541001      -17.3632060870
 C         9.6859780084       -2.8864448206      -16.8342619624
 O         8.5579546474       -3.2624760208      -16.4898913492
 C        10.9627243794       -3.5710944169      -16.4172608810
 C        10.7474024171       -4.9531001258      -15.6894026682
 C        10.8368688870       -4.8912428669      -14.1750269846
 O        10.3309975040       -3.9672299070      -13.6369018173
 C        11.3649880635       -6.1721669127      -13.2977594734
 C        10.3013254642       -6.3924718719      -12.0866426532
 O        10.6188196602       -6.4461478980      -10.9424903097
 C         8.8119992831       -6.7907051601      -12.5519456379
 C         7.7339344599       -6.1276271849      -11.7377274562
 C         7.0938468711       -4.8913638666      -12.4622438306
 O         7.0483602730       -4.9071865473      -13.7028270566
 C         6.6354528012       -3.6222910636      -11.6412694769
 C         5.7414289776       -2.7530384707      -12.5755300245
 O         6.0575806481       -2.4832072995      -13.7297624601
 C         4.3174201442       -2.4013337672      -12.2127320149
 C         3.3911697501       -3.1544703601      -13.2491324363
 C         2.7501749957       -4.5107549080      -12.5518543640
 O         3.0944997477       -4.8404426915      -11.4371515887
 C         1.6489355890       -5.2586901446      -13.3194723378
 C         0.2114179829       -4.5800305650      -12.9989012120
 O        -0.4546619365       -4.1434703988      -13.9152934240
 C        -0.1932584935       -4.6974035906      -11.4796753069
 C        -1.3052833654       -3.6927405224      -11.1891482728
 C        -2.6701494917       -4.1982795071      -11.7318557131
 O        -2.9401909299       -5.3610320869      -11.4754237349
 C        -3.7062033538       -3.3175237946      -12.5066737711
 C        -4.9280639822       -3.1597422973      -11.5460960375
 O        -5.0157093961       -2.0770259898      -10.9778391406
 C        -5.9865427819       -4.1936946038      -11.2988130692
 C        -6.0705726344       -4.7485724063       -9.7771729504
 C        -5.6702072284       -3.7345058450       -8.7227834088
 O        -6.1735571349       -2.6299469851       -8.7218736379
 C        -5.0273013894       -4.1621344081       -7.3506638526
 C        -4.5643035895       -3.0353535575       -6.3030203071
 O        -3.3953105063       -2.8547364166       -6.0972589761
 C        -5.7349816201       -2.1733048391       -5.7955442781
 C        -5.4435811380       -1.1273196851       -4.8333611162
 C        -6.8137311267       -0.4735785790       -4.5641039874
 O        -7.7999834450       -1.1567849582       -4.4346728830
 C        -6.8453522882        1.1467518708       -4.4676508134
 C        -6.8178567535        1.5912602794       -6.0338015018
 O        -5.7933737741        2.0173066875       -6.4921970732
 C        -8.2809450257        1.7026984926       -6.6530498813
 C        -8.1612239077        2.3253905775       -8.0522593296
 C        -7.6747785204        1.3204764544       -9.2116053705
 O        -7.7720014181        0.1379473403       -8.9851508212
 C        -6.6643958562        1.8327701578      -10.3220784157
 C        -7.0789095182        1.3221788181      -11.7277235585
 O        -6.9635099636        0.1031120377      -11.9827074632
 C        -7.8881793419        2.3439746226      -12.5718011940
 C        -8.2950139312        1.7349840671      -13.9111955153
 C        -9.6417176651        1.0893479297      -13.7383498948
 O       -10.5303126417        1.7631056944      -13.2370270815
 C        -9.8648867284       -0.5188487633      -13.9896624254
 C        -9.5205515039       -1.2198724042      -12.6217339598
 O        -8.5409817662       -1.9674880884      -12.4427811220
 C       -10.5332040938       -1.1731119939      -11.4523998597
 C       -10.9740319686       -2.6432426602      -11.0227848277
 C       -10.3397639964       -2.9510187844       -9.5817688197
 O        -9.1684104609       -2.6632313692       -9.3976061592
 C       -11.3215985834       -3.4800801545       -8.3659391500
 C       -11.9450763016       -2.0246046822       -7.9472249695
 O       -12.4272339622       -1.3365305757       -8.8113527895
 C       -11.9737925385       -1.5851139147       -6.5072932927
 C       -13.0101673214       -0.4994084473       -6.4046868370
 C       -12.5070974923        0.8336749178       -6.9655669666
 O       -11.3154587567        0.9896469646       -7.0679882826
 C       -13.5796233447        1.9970109563       -7.0019439491
 C       -14.1358416818        2.2967885622       -5.5720044680
 O       -14.7731073670        1.5757225336       -4.8565445503
 C       -13.9704469936        3.7357939654       -5.0780979316
 C       -13.8249908403        3.9322455785       -3.5594509291
 C       -12.3942421967        3.5389683984       -3.0368478541
 O       -11.5136908495        3.0832895876       -3.7546446014
 C       -11.9708345035        3.8340029423       -1.4263853407
 C       -11.7572594994        5.3878695337       -1.3600386725
 O       -12.1920836642        6.1337927803       -2.2448057356
 C       -11.0528399437        5.9166365919       -0.1715201813
 C       -13.1641696344        3.6341151196       -0.4860819199
 C       -10.7917828768        2.9159549379       -1.0784886871
 C       -12.9612160546        3.2309667462       -7.7075363960
 C       -14.7738280275        1.6246928033       -7.9933103711
 C       -12.4098639238       -4.3962970331       -8.8712984829
 C       -10.4066795903       -4.2890873068       -7.3798326659
 C       -11.3604065551       -0.8790129934      -14.4535301364
 C        -8.8118276485       -1.0238046755      -15.0251512767
 C        -6.3834779138        3.3006541099      -10.3556827509
 C        -5.2959322152        1.1131582968       -9.9384518496
 C        -8.2232599550        1.5917275852       -3.7321101640
 C        -5.6459756784        1.8325739438       -3.8093454705
 C        -6.1275330971       -4.9456669556       -6.6039857041
 C        -3.8090090279       -5.0910083523       -7.6110683776
 C        -3.1581648891       -1.8010978649      -12.8022778108
 C        -4.2499247025       -3.9336165462      -13.8108874461
 C         1.9321620445       -5.1798830164      -14.8375257118
 C         1.8082956481       -6.7165349826      -12.7354415104
 C         5.9048935733       -4.0862898037      -10.3458517061
 C         7.8468413894       -2.7566424500      -11.1259810500
 C        11.6034010608       -7.4636106199      -14.1401078242
 C        12.7627921090       -5.8297464925      -12.6759894695
 C         8.6326642503       -0.7484964975      -18.1828730755
 C        11.1536322608       -1.0709472128      -18.1767261054
 H        10.1745277626        1.3975981658      -16.8468334107
 H        11.5231628975        0.5590521446      -16.1910645596
 H        10.3256889818        1.1583753132      -15.0268741316
 H        11.3606788825       -2.7860313816      -15.6796205558
 H        11.7405640998       -3.6738481202      -17.2280497100
 H        11.2851361757       -5.7365671796      -16.2702192391
 H         9.6675827044       -5.1588392262      -15.9353245713
 H         8.6944633509       -7.8820236485      -12.2701918844
 H         8.6908602767       -6.5991852473      -13.6222717553
 H         8.1101134202       -5.7633990600      -10.7538146166
 H         6.8592611696       -6.7497357138      -11.6059597780
 H         4.1247996276       -1.3577267096      -12.2039271223
 H         4.0700869314       -2.5699555368      -11.2235313186
 H         3.9296807830       -3.5332113270      -14.1000513543
 H         2.7121025926       -2.4730544445      -13.6730231393
 H         0.5978516981       -4.6422517849      -10.7996845151
 H        -0.5513708501       -5.7098889084      -11.3134136825
 H        -1.1032075350       -2.6779582395      -11.4356011942
 H        -1.4333383175       -3.5961188828      -10.0877127027
 H        -5.8406126059       -5.1125394949      -11.9432027631
 H        -6.9833350110       -3.8106957345      -11.5978186137
 H        -5.2903077386       -5.5401591424       -9.6039058859
 H        -6.9818830016       -5.2891765262       -9.5198034990
 H        -6.4280255151       -2.8653756397       -5.2690676746
 H        -6.2295942032       -1.7890679994       -6.6576517658
 H        -4.7432372016       -0.2768687828       -5.1541632364
 H        -5.1006656912       -1.3054188045       -3.8459005252
 H        -8.8638566621        2.3230233169       -6.0441129650
 H        -8.7298719172        0.7550594882       -6.7661168089
 H        -7.6022564796        3.1941084402       -7.9228305024
 H        -9.1935513388        2.5000150631       -8.3130420424
 H        -7.4253331346        3.3400985790      -12.6896903521
 H        -8.7294128295        2.5309364634      -11.8925305997
 H        -7.4973219979        1.2024872343      -14.3446695295
 H        -8.3837040877        2.5717837518      -14.6169880593
 H       -11.4086609270       -0.7262764948      -11.8198088979
 H       -10.1499995079       -0.7286703130      -10.5258532623
 H       -10.6250944910       -3.3595530038      -11.7840213209
 H       -12.0507664618       -2.7414217478      -11.0218887497
 H       -10.9539822070       -1.1748972458       -6.4240399252
 H       -12.0713050858       -2.4506749400       -5.8052933166
 H       -13.3439505948       -0.2392982029       -5.4015871005
 H       -13.8787435084       -0.8143682874       -6.9224856376
 H       -14.9554444821        4.1624988857       -5.3866729185
 H       -13.1758307687        4.2579188048       -5.5874197957
 H       -14.4126243483        3.1700711601       -3.0967398204
 H       -14.0858315502        4.9645242542       -3.2280748506
 H       -10.7503576819        6.8825861346       -0.4940263371
 H       -10.0986424323        5.3724655140        0.0272008863
 H       -11.6762147238        5.8891204786        0.7450195782
 H       -13.5737215221        2.6501509056       -0.7267704447
 H       -13.9802215300        4.3274565919       -0.5873408467
 H       -12.7784330384        3.5822513885        0.4965319482
 H       -11.0977081934        1.9158520908       -1.0067134304
 H       -10.2800919477        3.2502081650       -0.1737271926
 H       -10.0295394927        3.0225100754       -1.8385603176
 H       -12.7959969802        3.0980661962       -8.7884665411
 H       -12.1107889749        3.6393168426       -7.2481758362
 H       -13.7821777017        3.9911792588       -7.6263994207
 H       -15.6647254496        1.3623170144       -7.4203207821
 H       -14.4348829209        0.7649899787       -8.6091611852
 H       -14.9414763885        2.4096677925       -8.7106891451
 H       -13.2664079347       -3.9368992776       -9.2639828810
 H       -12.8475852808       -4.9265759239       -8.0332975288
 H       -11.9839744061       -5.0963787495       -9.5968017602
 H        -9.6362731139       -3.7545191721       -6.8779393958
 H        -9.8824398157       -4.9864497341       -7.9943329570
 H       -10.9588900590       -4.7675934157       -6.6366588381
 H       -11.4824853434       -0.8661991293      -15.5773777723
 H       -12.0834080056       -0.2260387168      -13.9570947960
 H       -11.5083801700       -1.8952958881      -14.1022230284
 H        -7.9199646039       -1.0857512885      -14.5392447397
 H        -8.7390890939       -0.3671613573      -15.9082158034
 H        -9.0561822969       -2.0246552085      -15.3903636077
 H        -5.6011866045        3.5214501006      -11.1205937365
 H        -5.9955222961        3.7420841565       -9.3999209993
 H        -7.1964463839        3.8395717259      -10.6274257049
 H        -5.2688693556        0.0741971450       -9.9292585296
 H        -4.9372079205        1.4217050698       -8.9408608973
 H        -4.4607856578        1.4606830616      -10.5190230264
 H        -8.4506194402        2.7284376592       -3.9231599059
 H        -7.9775137497        1.3874742088       -2.6161472759
 H        -9.0726943249        0.9123630518       -4.0028051512
 H        -5.2014866658        2.4253273754       -4.5486725667
 H        -4.9676205292        1.1050988655       -3.3644431022
 H        -6.0638303594        2.4930375905       -3.0856529813
 H        -6.4119476001       -5.7814933230       -7.1589836943
 H        -7.0124153766       -4.2655953223       -6.6184513128
 H        -5.8185301190       -5.1732806509       -5.5668505131
 H        -3.1699451283       -4.6666165876       -8.3792873466
 H        -4.1414956533       -6.1309942483       -7.8524132400
 H        -3.2875068951       -5.1620540881       -6.6954116668
 H        -2.0332604652       -1.7421486509      -12.7878209079
 H        -3.5220968636       -1.1688140276      -12.0036993371
 H        -3.5669615667       -1.3412711542      -13.6708612358
 H        -5.2682372077       -3.5178008913      -13.9876243009
 H        -4.4936559848       -5.0194458845      -13.7665354486
 H        -3.4646330314       -3.9545863111      -14.6054953792
 H         2.9659551422       -5.4923694732      -15.0872924161
 H         1.8817079759       -4.2292324443      -15.3176128634
 H         1.4072809577       -5.9533287520      -15.4070840276
 H         2.0598642998       -7.2841449539      -13.5879642750
 H         0.8955907386       -7.1144516983      -12.2878726803
 H         2.5842025502       -6.8244083259      -12.0301762658
 H         4.8650610127       -4.3968483347      -10.6704250911
 H         5.7406098446       -3.2423227697       -9.6514326240
 H         6.4661740133       -4.8218159460       -9.8670716033
 H         8.3791975348       -3.2640191726      -10.2924035845
 H         7.4552240269       -1.8973552462      -10.5806340208
 H         8.4929255031       -2.3043860161      -11.9182225838
 H        10.7759931335       -7.6645187540      -14.7900470326
 H        11.8622348533       -8.4146608048      -13.6251397127
 H        12.4292189620       -7.2777106633      -14.8111826197
 H        13.2415978994       -6.7627211909      -12.2799445825
 H        12.7053671333       -5.1452191040      -11.9131909585
 H        13.4556951122       -5.2904051546      -13.3831672397
 H         8.7876225382        0.3360461223      -18.2402275999
 H         7.7267457426       -0.9258111411      -17.6621256880
 H         8.5397391939       -1.2387868070      -19.0752978129
 H        12.0657144164       -0.9914062403      -17.4575537552
 H        11.1064875959       -0.1645879805      -18.8167431717
 H        11.4022976230       -1.8328967071      -18.9568974031
 Na        8.3153924821       -3.0867390663      -14.3090112420
 Na       -7.5324550276       -1.7296070366      -10.3722844443
