232

 C        10.5015270795        0.7215515025      -15.8599554901
 C         9.6284653052       -0.5498414100      -15.9279116789
 O         8.9990846627       -0.9164170841      -14.9798541457
 C         9.8253272026       -1.3959988950      -17.2918572546
 C         9.9583467787       -2.9664388910      -16.9311809922
 O         8.9490817603       -3.6391569720      -16.8603350907
 C        11.3451620352       -3.6654463296      -16.6779682791
 C        11.1627250443       -5.0323611353      -15.9727136249
 C        10.7782619235       -4.9604462847      -14.4830504649
 O        10.0172560852       -4.1881045417      -14.0197225439
 C        11.3543560037       -6.1246855401      -13.5032192244
 C        10.3850007212       -5.9921993602      -12.2595583475
 O        10.7672701424       -5.4649803798      -11.2558970334
 C         8.9358213428       -6.7221261900      -12.2461302954
 C         7.9616927479       -5.7554376857      -11.5441413882
 C         7.1569354427       -4.8637093264      -12.4438711387
 O         7.1413056421       -5.1535321236      -13.6076277607
 C         6.5833700150       -3.6053368488      -11.6448031429
 C         5.6746616464       -2.7327095264      -12.6532278114
 O         6.0027962052       -2.6083522766      -13.7956535886
 C         4.3199952133       -2.2095479671      -12.1723925308
 C         3.1156313075       -2.8824942749      -12.7970098822
 C         2.6348291555       -4.2626361328      -12.2053525891
 O         2.9157099698       -4.5560196478      -11.0584184592
 C         1.7528753073       -5.3164934540      -13.0642971681
 C         0.2040225004       -4.8807643374      -13.0010942101
 O        -0.3176167651       -4.3915196824      -13.9681843823
 C        -0.3899416919       -4.9798545250      -11.5751654925
 C        -1.4407183872       -3.8779188411      -11.3676287377
 C        -2.7043463432       -4.3486754245      -12.1635804431
 O        -3.0391827602       -5.5364164660      -12.1229351552
 C        -3.8036359153       -3.3140125501      -12.7900544836
 C        -4.8446716859       -2.9640122964      -11.5715654938
 O        -4.8772235100       -1.7771718152      -11.2423403833
 C        -5.9525513034       -3.8889867902      -11.1657452493
 C        -5.5702641477       -4.7679284071       -9.8818960444
 C        -5.6626286710       -3.9215555493       -8.6188460500
 O        -6.2160645252       -2.8584592169       -8.6984993412
 C        -4.9170696782       -4.3931600411       -7.2728920183
 C        -4.7071435222       -3.0883382389       -6.3257229541
 O        -3.6622585480       -2.5504201311       -6.1228868868
 C        -5.9049094366       -2.4490873689       -5.6022828932
 C        -5.4836276967       -1.0978132923       -4.9962694213
 C        -6.6613476572       -0.2990442597       -4.4635158633
 O        -7.7592176442       -0.9073692575       -4.4023833579
 C        -6.6613596743        1.2301244341       -4.2810821387
 C        -6.7003443014        1.7029559031       -5.8272407556
 O        -5.6276238323        1.6981711511       -6.4306631113
 C        -8.0154316503        1.9495060172       -6.5348021908
 C        -7.8336742507        2.6211913816       -7.8870404979
 C        -7.5182518598        1.6500758016       -9.0242714391
 O        -8.0794886609        0.6178528772       -9.1195718841
 C        -6.5699990549        2.1419120664      -10.2891294817
 C        -7.2352117834        1.5345996851      -11.5375338312
 O        -7.1424552024        0.3055945867      -11.7543870590
 C        -7.7268337342        2.4043632342      -12.7717901815
 C        -8.3231978189        1.5951611511      -13.9445162760
 C        -9.5675285892        0.8304914166      -13.6021794216
 O       -10.4012402285        1.3418471354      -12.8614696386
 C        -9.8574308197       -0.6390878516      -14.1053215764
 C        -9.4920590540       -1.4871832826      -12.8170707910
 O        -8.4597590275       -2.1753687959      -12.7641408517
 C       -10.4303714076       -1.4914862417      -11.5777179602
 C       -10.9566974071       -2.8385467403      -11.0760565371
 C       -10.3681954561       -3.0283493441       -9.5866989206
 O        -9.1778898435       -3.0537383640       -9.3655840813
 C       -11.5050885469       -3.3277749338       -8.4700294776
 C       -12.3076639184       -2.0173364610       -8.1224215521
 O       -12.8813590252       -1.4327347757       -9.0594572554
 C       -12.6008783823       -1.9257588383       -6.6294774848
 C       -13.5105319234       -0.6969957498       -6.3259253152
 C       -12.7856594141        0.6384932984       -6.6033327406
 O       -11.5356610572        0.5781164036       -6.6463753279
 C       -13.6405092812        1.9651839145       -6.8304501986
 C       -14.1305057500        2.3885495697       -5.4287218656
 O       -14.6110471262        1.5167583805       -4.6959226509
 C       -13.8308802996        3.7893290214       -4.9234547548
 C       -13.6276271495        4.0562265689       -3.4596068412
 C       -12.3298415701        3.4922587794       -2.8929176966
 O       -11.4893023621        2.8790927511       -3.5364823266
 C       -11.9963666574        3.8591269491       -1.4389886254
 C       -11.7379224962        5.3581792390       -1.3202878975
 O       -12.0378321447        6.0624168750       -2.2497572798
 C       -11.2438774703        5.9976090992       -0.0485857483
 C       -13.0035232757        3.3533682376       -0.3413291015
 C       -10.5894152287        3.2025540443       -1.0115883262
 C       -12.8114858906        2.9473107078       -7.6318662939
 C       -14.9054064877        1.7877536061       -7.6934902107
 C       -12.3937995939       -4.5683512085       -9.0007006707
 C       -10.8852499621       -3.9926335872       -7.2213829730
 C       -11.3138850276       -0.8895912625      -14.4672160372
 C        -9.0131222159       -1.0946620015      -15.3503475282
 C        -6.4231758649        3.7012131383      -10.3205612638
 C        -5.2301845828        1.6171713706      -10.0853536002
 C        -7.8320179024        1.7319135805       -3.4793603891
 C        -5.3692539345        1.8356653362       -3.6351906970
 C        -5.8610832129       -5.4191011829       -6.6011541805
 C        -3.4770628099       -4.8729765467       -7.5713442055
 C        -3.1456666850       -2.0095762019      -13.1954890690
 C        -4.6550576867       -3.8896547305      -13.9184350147
 C         2.0840297975       -5.2985960235      -14.6215792219
 C         2.0535978063       -6.6939519251      -12.3268014212
 C         5.8363541639       -4.0988393666      -10.3259832058
 C         7.7606932676       -2.7792967646      -11.1695480170
 C        11.2156931520       -7.4792521062      -14.2249146746
 C        12.8331972899       -5.6607713529      -13.2877287411
 C         8.5610930786       -1.1065537954      -18.0367801142
 C        11.0781247263       -1.0683628408      -17.9629843932
 H        10.6279812246        1.2339054005      -16.8427547575
 H        11.4001894049        0.4607610921      -15.4269323785
 H         9.9381139110        1.3583944453      -15.2230063930
 H        12.0078254134       -3.0491377692      -16.0058372450
 H        11.8676453644       -3.6758807502      -17.6760329742
 H        12.1185727460       -5.5455075752      -16.1804266358
 H        10.4063422457       -5.6963463159      -16.4047732280
 H         9.0636146407       -7.6835956564      -11.7233407968
 H         8.5427124443       -6.8164737709      -13.2374807302
 H         8.4158702907       -5.0781454341      -10.7810523165
 H         7.1216508548       -6.2959162317      -11.0750477736
 H         4.3049656393       -1.1755181392      -12.3616195972
 H         4.3109140235       -2.2145239615      -11.0980356506
 H         3.2559273699       -2.9220274304      -13.8745841529
 H         2.2342140586       -2.2955534642      -12.7519560446
 H         0.4156219368       -4.9567178131      -10.8835729471
 H        -0.8767077028       -5.9886564843      -11.4491623021
 H        -1.1433823452       -2.9493043350      -11.7796085883
 H        -1.8215307250       -3.5929599547      -10.3548649931
 H        -6.1888991472       -4.4903418879      -12.0479699939
 H        -6.7103550348       -3.1671810460      -10.9070729356
 H        -4.5936323576       -5.3296338536       -9.8500611220
 H        -6.3907708205       -5.4840790565       -9.6314999338
 H        -6.1501978502       -3.1275860070       -4.7373921866
 H        -6.7537328478       -2.4397829102       -6.2576194357
 H        -5.0055848838       -0.3224022599       -5.7483973634
 H        -4.7770646583       -1.2964011999       -4.2351164388
 H        -8.6211649804        2.5872656035       -5.8815764585
 H        -8.5646610523        0.9968986162       -6.7082259434
 H        -7.2312677669        3.4930639928       -7.7573194023
 H        -8.8581946175        2.8421583938       -8.1074090250
 H        -6.7353829623        2.8742830418      -13.0118472571
 H        -8.5340659452        3.1565109695      -12.5304212646
 H        -7.5723254360        0.9334933803      -14.3717140836
 H        -8.5927187832        2.2655079957      -14.8321498661
 H       -11.3292006480       -0.9429046660      -11.7855916058
 H        -9.8597678504       -1.0037276700      -10.7282160559
 H       -10.6549785552       -3.7575234941      -11.6170946234
 H       -12.0652533519       -2.8793754992      -11.0678740683
 H       -11.6849283257       -2.0195142265       -6.0612802105
 H       -13.0696990821       -2.9249245714       -6.3288473132
 H       -13.8410722466       -0.8004182752       -5.3260053329
 H       -14.4028707182       -0.7027496586       -6.9285811331
 H       -14.7942967204        4.2908067317       -5.1323874386
 H       -13.1037217745        4.2343880371       -5.5608172043
 H       -14.4506287776        3.6345051181       -2.9333732091
 H       -13.6089046927        5.1543491541       -3.3444879759
 H       -11.3690044765        7.0455462049       -0.0645301547
 H       -10.1494881566        5.8173889173        0.0020277150
 H       -11.7026716572        5.5785589407        0.8188993198
 H       -13.0328075651        2.2771617620       -0.4408333921
 H       -14.0113410294        3.7400015214       -0.5577579914
 H       -12.7515936559        3.5606040814        0.6732627706
 H       -10.4621478393        2.2147937508       -1.3520873204
 H       -10.4349149495        3.2863838686        0.0314299087
 H        -9.7906617449        3.7617695178       -1.4560700090
 H       -12.5339861309        2.4592493513       -8.5546349789
 H       -11.8889568774        3.2809952211       -7.0950346822
 H       -13.5345218233        3.8356679016       -7.9112935293
 H       -15.4978766535        0.9684336700       -7.2517935618
 H       -14.4810765966        1.4527502492       -8.7627855266
 H       -15.4888997610        2.7255365875       -7.8345358461
 H       -12.8899465731       -4.4701262722       -9.9514558685
 H       -13.2076228802       -4.8274140014       -8.3418407103
 H       -11.7586824987       -5.4663332596       -8.9798337530
 H       -10.3043557173       -3.1970721077       -6.7812176085
 H       -10.1139999709       -4.7208329525       -7.4862075790
 H       -11.4837013044       -4.3544389072       -6.4259566003
 H       -11.6817349673       -0.1910779414      -15.2553620816
 H       -12.0306007784       -0.9870366816      -13.6365611658
 H       -11.3143439930       -1.8593704414      -15.0596861952
 H        -7.9750902243       -0.9807797491      -15.1700217786
 H        -9.2297186103       -0.4230500265      -16.1844673775
 H        -9.3033930214       -2.0837163695      -15.7536910700
 H        -5.8738728567        4.0413862636      -11.2715992624
 H        -5.8360128525        4.2075998518       -9.4822718691
 H        -7.3798579412        4.1775926747      -10.2714051042
 H        -5.1395706438        0.5745052364      -10.2501286297
 H        -4.9211367911        1.6968223060       -9.0500953442
 H        -4.4367604375        2.0932913286      -10.6216318245
 H        -7.8351723117        2.7653727210       -3.3931117585
 H        -7.8376057070        1.1893609873       -2.4696101295
 H        -8.6683090803        1.4648424521       -4.2136196287
 H        -4.5663605592        1.1591193804       -3.8934100255
 H        -5.4977628458        1.8720786805       -2.5173826497
 H        -5.3213908399        2.7890640780       -4.0889726846
 H        -6.0230909064       -6.1335862769       -7.3385903447
 H        -6.8440241110       -4.9761756453       -6.3919259068
 H        -5.3578430233       -5.9891887559       -5.7712770580
 H        -2.9686315453       -4.1585747284       -8.2437773211
 H        -3.3234416580       -5.9536921087       -7.8117673450
 H        -2.9935356739       -4.7800665198       -6.6304316375
 H        -2.2471362678       -2.1729633708      -13.7905668147
 H        -2.7506272225       -1.5226291877      -12.2995259895
 H        -3.8211823593       -1.3449442582      -13.6935879408
 H        -5.3018297662       -3.1181052059      -14.3485128570
 H        -5.3356458626       -4.7126026687      -13.7163792947
 H        -4.0128914665       -4.1743254535      -14.7479737276
 H         3.0640491655       -5.5330771362      -14.9155162524
 H         1.8472783631       -4.3870611920      -15.0672251644
 H         1.4757275135       -5.9813107259      -15.1669508400
 H         3.0675683092       -6.7278353674      -11.9892039630
 H         1.8418938882       -7.5668148722      -12.9562090190
 H         1.3731683374       -6.7646998859      -11.5099488053
 H         5.2457543208       -5.0291197282      -10.5396120307
 H         5.0807371619       -3.3500030360       -9.9719083807
 H         6.5135695887       -4.3406804060       -9.5869562638
 H         8.4186745257       -3.3298503707      -10.4908386934
 H         7.3518959274       -1.8695292735      -10.6334983666
 H         8.3637217064       -2.4442212768      -11.9979905494
 H        10.1420846745       -7.7418365504      -14.2880760464
 H        11.8807267857       -8.2910128522      -13.9437308849
 H        11.4454446776       -7.3897229405      -15.3075663944
 H        13.1951466827       -6.0840088224      -12.3650479114
 H        12.8922702315       -4.5593857463      -13.2013534347
 H        13.5739319605       -5.9418163259      -14.1593718367
 H         8.7204603151       -0.0774131884      -18.3197959492
 H         7.6446497346       -1.0655743584      -17.4777903027
 H         8.3672495106       -1.8250982227      -18.7878874657
 H        11.9492571472       -1.1267511983      -17.2973564336
 H        11.1035177903       -0.0719697626      -18.3829139035
 H        11.3614867537       -1.6240053737      -18.8666972574
 Na        8.0530614241       -3.0094023956      -14.7958168996
 Na       -7.3326710496       -1.5576750497      -10.3496183410
