232

 C        10.1441588063        0.1854482226      -15.2344631286
 C         9.4484375876       -1.0241416278      -15.8839677403
 O         8.5502869832       -1.5856138032      -15.2273669644
 C         9.8267532040       -1.3886577933      -17.3860222023
 C        10.0092835800       -3.0007542854      -17.3643959208
 O         9.0992611330       -3.7297951323      -17.7271574897
 C        11.4786996527       -3.5391032093      -17.1033291248
 C        11.6449462303       -4.9084604180      -16.4352853745
 C        10.8546673150       -5.0326110488      -15.0978122602
 O         9.7393694007       -4.4309229044      -15.0422385610
 C        11.3162618954       -5.7961837535      -13.8348709373
 C        10.4633963860       -5.2374252910      -12.7132318498
 O        10.7001879468       -4.1280359628      -12.2439968195
 C         9.3227617071       -6.1423770990      -12.0884913341
 C         8.3262420922       -5.3986359777      -11.2639567817
 C         7.4297402169       -4.5627614740      -12.1430643018
 O         7.0942233574       -5.0583541486      -13.2215008010
 C         6.6983680343       -3.3000154261      -11.5475064230
 C         5.6266075911       -2.8396182003      -12.5219471909
 O         5.8044282458       -2.9553294955      -13.7512138364
 C         4.2741227463       -2.3258938202      -11.9197502256
 C         3.1717233482       -3.1020024079      -12.6863338484
 C         2.5420949109       -4.2029147855      -11.8399710328
 O         2.3064222218       -3.9343908023      -10.6501984294
 C         1.8582061802       -5.3765595781      -12.6129643464
 C         0.3219140037       -4.7124636967      -12.8780637122
 O         0.1406348734       -4.1171059239      -13.9140178672
 C        -0.7489587232       -5.1235394613      -11.8752811928
 C        -1.8202984795       -4.0423898849      -11.7528993519
 C        -3.0322908002       -4.4310355830      -12.5722827123
 O        -3.2732042107       -5.5891219918      -12.8071928547
 C        -4.1014326305       -3.3234780242      -13.1634147764
 C        -5.3501562916       -3.3639741807      -12.0444811309
 O        -5.8530736556       -2.3154752327      -11.7750827584
 C        -5.8756213347       -4.6765437928      -11.3047907454
 C        -5.0835831687       -4.9714937801       -9.9150662822
 C        -5.3736144858       -3.9800948492       -8.8201679781
 O        -5.9810368925       -2.9114141272       -8.8678444583
 C        -4.8458476712       -4.3140722955       -7.3442121389
 C        -4.5923556294       -2.9859484023       -6.5222306565
 O        -3.4396687919       -2.5989094992       -6.4719075070
 C        -5.8120638065       -2.2162801220       -5.9172702571
 C        -5.2826266511       -0.9574831776       -5.1111432052
 C        -6.5443665562       -0.3177357036       -4.4866828338
 O        -7.5373146710       -0.9368629226       -4.4381303426
 C        -6.6166731476        1.2449381106       -4.3308082618
 C        -6.8095072619        1.6212336730       -5.8137212276
 O        -5.8581530787        1.6091706702       -6.5832011154
 C        -8.1391048676        1.9133229427       -6.4277164401
 C        -8.0270149478        2.6252338273       -7.8503508774
 C        -7.2181407264        1.7496508633       -8.9906826450
 O        -7.1565544177        0.5505418275       -8.8751922794
 C        -6.6887732015        2.4303134378      -10.2346495347
 C        -7.4366279264        1.8125029440      -11.4223475677
 O        -7.8043657405        0.6168116877      -11.5297847355
 C        -7.6306337814        2.5545689374      -12.7431004659
 C        -8.0007049846        1.6482261621      -13.9223636783
 C        -9.2949271320        0.9497389979      -13.6391737902
 O       -10.1964264332        1.6297474908      -13.2948913369
 C        -9.5315523351       -0.6078759571      -13.8243184219
 C        -9.4648618950       -1.4278920332      -12.4389040105
 O        -8.4723652620       -2.0941920702      -12.1926786123
 C       -10.4831326339       -1.2481519387      -11.4113589676
 C       -10.7834991301       -2.5955501177      -10.6905704823
 C       -10.3862961857       -2.8456905067       -9.2130259338
 O        -9.3893288326       -2.4340618260       -8.7255105746
 C       -11.5340118056       -3.4503931303       -8.2066829547
 C       -12.7376119977       -2.5650602005       -8.1617948027
 O       -13.3230983783       -2.3285767178       -9.2129760748
 C       -13.3320981510       -2.2117664378       -6.7452989262
 C       -14.1045662712       -0.8829053295       -6.6830183346
 C       -13.0716042703        0.3001543920       -6.8001425810
 O       -11.8784181943        0.0616423252       -6.8560952204
 C       -13.6361910970        1.7578270726       -6.7075344760
 C       -13.7977875737        2.0834061702       -5.0301272645
 O       -14.1595374848        1.2728666134       -4.2564258187
 C       -13.5702542568        3.6248461239       -4.6433910036
 C       -13.4055906571        3.8146873914       -3.1465358283
 C       -12.0205315640        3.4276423250       -2.6121908519
 O       -11.1611199693        3.1087125747       -3.3950687816
 C       -11.7496088061        3.8122427097       -1.1185614143
 C       -11.7830145231        5.4138680808       -1.0485984580
 O       -11.4875737122        5.9893510583       -2.0915757212
 C       -11.8422539910        6.1287055445        0.2601734705
 C       -12.7709147603        3.1506158897       -0.1924450212
 C       -10.3475698003        3.2941462772       -0.7886066128
 C       -12.5878033158        2.7134275849       -7.3565985551
 C       -14.9941543733        1.6919693222       -7.4748540004
 C       -12.0667025509       -4.8109675420       -8.8458136867
 C       -10.8460015436       -3.8044369578       -6.8885591467
 C       -10.8398417481       -0.7276629064      -14.5861432480
 C        -8.3962815200       -1.2386718955      -14.6958793633
 C        -6.8374782100        3.9394892622      -10.3918486774
 C        -5.1683122950        2.0658402011      -10.2568103034
 C        -7.6683789551        1.8814136329       -3.3788546596
 C        -5.2121084079        1.7735680437       -3.8099011705
 C        -5.8091807456       -5.2994769171       -6.6156180898
 C        -3.4036066628       -4.9793694052       -7.4935158184
 C        -3.6935037851       -1.8349690393      -13.3816166712
 C        -4.8015703308       -3.9224576630      -14.4081404771
 C         2.4447745188       -5.7310774856      -14.0516516166
 C         1.8692970565       -6.6946826869      -11.7637103669
 C         6.2549790592       -3.6446691576      -10.0697459990
 C         7.6405994482       -2.0481438197      -11.4792853864
 C        11.0333609110       -7.3494861341      -14.1192877363
 C        12.9547143134       -5.5246039428      -13.5909726818
 C         8.6157617544       -1.1895809768      -18.2586506669
 C        11.0399911618       -0.6517244303      -17.9389265613
 H        10.3082336148        0.9415214764      -16.0265374300
 H        11.0985006224       -0.1187050022      -14.6876267681
 H         9.4420273623        0.5951068864      -14.5048604477
 H        12.1105397965       -2.7558628342      -16.7525093714
 H        11.7052427948       -3.6741266567      -18.1342162019
 H        12.7015099960       -5.1616968652      -16.3613248505
 H        11.1639223262       -5.7202075168      -16.9061828013
 H        10.0085666667       -6.7473630125      -11.4997603102
 H         8.8080840164       -6.7743032378      -12.7885795335
 H         8.8688680905       -4.6947292920      -10.5852847389
 H         7.7576697029       -6.0000290851      -10.5557349076
 H         4.2821200272       -1.3070277490      -12.1628369090
 H         4.2330967324       -2.6490383423      -10.8061307421
 H         3.7432672465       -3.5057470910      -13.5974578665
 H         2.3379325400       -2.4262036347      -12.9553190345
 H        -0.3877119115       -5.1736288847      -10.8638222424
 H        -1.2967892838       -6.0809456816      -12.2396824868
 H        -1.4076200908       -3.0714060680      -11.8251870587
 H        -2.3377509570       -4.1613716114      -10.7562139699
 H        -5.6797987647       -5.4611775999      -12.0436824374
 H        -6.9398179281       -4.5193127149      -11.2323277437
 H        -4.0253654083       -4.8267259884      -10.1329824554
 H        -5.2773924494       -5.9296145867       -9.4422674104
 H        -6.6089031253       -2.8181837010       -5.3975872576
 H        -6.2711333093       -1.7833120780       -6.8095941547
 H        -5.0222544135       -0.2613205979       -5.9333739682
 H        -4.5437658086       -1.1975973240       -4.4332136978
 H        -8.8532449598        2.4740804574       -5.7518712767
 H        -8.6271239676        0.8722185414       -6.5460742582
 H        -7.4126529746        3.5790754850       -7.6368372697
 H        -8.9490680323        3.0478615363       -8.2770749218
 H        -6.6355622659        2.9029282326      -12.9128980875
 H        -8.3975197665        3.3261270974      -12.8522696844
 H        -7.1888815708        0.9133137813      -13.9404419827
 H        -8.0707911222        2.1911268029      -14.9148991652
 H       -11.4449175647       -0.8350661958      -11.7424663176
 H       -10.1142089151       -0.4801227123      -10.6903258042
 H       -10.4056518927       -3.5238363386      -11.1075265349
 H       -11.8972887620       -2.6993101173      -10.5945450763
 H       -12.6720896040       -2.4726468628       -5.9679860022
 H       -14.1716784115       -2.9568312988       -6.6254557774
 H       -14.7109685080       -0.9620609362       -5.7976865840
 H       -14.8201832180       -0.8141714516       -7.5731104069
 H       -14.4698615860        4.1941511376       -4.9889886495
 H       -12.7460153746        3.9627728713       -5.2271013525
 H       -14.2696614218        3.4094015343       -2.5972852030
 H       -13.4185315665        4.9189773354       -2.9179571638
 H       -12.3196005246        5.7696113313        1.2091725861
 H       -11.9929560533        7.2143002168        0.0817033720
 H       -10.7874476980        6.0968854753        0.5740097046
 H       -12.6465195180        2.0987065452       -0.1812994228
 H       -13.7979044190        3.3037570954       -0.5734962717
 H       -12.7609066606        3.4848369671        0.8330603095
 H       -10.1628293300        2.1974189533       -1.0668440885
 H       -10.1275425376        3.3457265316        0.2730810992
 H        -9.5835704237        3.9129166871       -1.3274464219
 H       -12.3201340467        2.2352815996       -8.2896501301
 H       -11.6907053244        2.6391709159       -6.6997674291
 H       -12.9181395202        3.6881301598       -7.5949383327
 H       -15.7964671987        1.3604570863       -6.8460497167
 H       -14.9000071187        1.1453868227       -8.3444672744
 H       -15.1736675052        2.6707533929       -7.8398776386
 H       -12.7258519977       -4.7338938309       -9.7467693209
 H       -12.6941091287       -5.3101306575       -8.1389384286
 H       -11.2668417504       -5.4747031146       -9.2090793675
 H       -10.6800087480       -2.8104100305       -6.4302288307
 H        -9.7920989529       -4.2233067723       -6.9550240613
 H       -11.5389460813       -4.4076026004       -6.1974594508
 H       -10.7780595431       -0.2015870422      -15.4752511351
 H       -11.6973141137       -0.3757841636      -14.0746415428
 H       -11.0749784610       -1.7693354921      -14.8327993176
 H        -7.4243015157       -1.3277978411      -14.0605926139
 H        -8.0931839087       -0.6458154044      -15.5136669661
 H        -8.4397014495       -2.2786919738      -15.0328494716
 H        -6.4454329728        4.1724346641      -11.3285028140
 H        -6.3377569861        4.4671797616       -9.6578377455
 H        -7.9311888570        4.2078189329      -10.4606589975
 H        -4.9020370623        0.9747515041      -10.4350061252
 H        -4.7243938446        2.2920687902       -9.3070317600
 H        -4.5446175086        2.5315158140      -11.0551107094
 H        -7.7194273039        2.9445125903       -3.4657008843
 H        -7.5028647159        1.6385045270       -2.4223381559
 H        -8.5440178318        1.4765954957       -3.6063995857
 H        -4.7180208325        2.3636612263       -4.6056710294
 H        -4.6544610048        0.8827942490       -3.4878808876
 H        -5.3521713978        2.3440676352       -2.9246682534
 H        -5.8166627902       -6.0879815949       -7.3470739891
 H        -6.7764344543       -5.0063346258       -6.2681540336
 H        -5.3475094056       -5.7559114399       -5.6891367970
 H        -2.7206023315       -4.5052027642       -8.2107241076
 H        -3.3810379389       -6.0199655626       -7.7611800544
 H        -2.9275329064       -4.8213006226       -6.5363837921
 H        -2.9930464888       -1.6868183471      -14.1458573275
 H        -3.3335944259       -1.3177628821      -12.4437461668
 H        -4.5298044985       -1.1609689215      -13.6508162553
 H        -5.4651384482       -3.1535209623      -14.8509397303
 H        -5.3966758065       -4.8148687436      -14.0945289786
 H        -4.2755106609       -4.2999632321      -15.2812788799
 H         3.5306639777       -6.0229532397      -14.0163421195
 H         2.3673744041       -4.8803286156      -14.8093764454
 H         1.9214670249       -6.6810181837      -14.3501565554
 H         2.8808206681       -6.8678989737      -11.3979077185
 H         1.4780685248       -7.5109346131      -12.3249690721
 H         1.3344985966       -6.4787210465      -10.8380420013
 H         5.3807942643       -4.1970672663      -10.0418804202
 H         6.2006792273       -2.8159522532       -9.3808342308
 H         7.0274453999       -4.2634994082       -9.5304772371
 H         8.3222239729       -2.2904173293      -10.6861710110
 H         7.0968124920       -1.0706504661      -11.2528519379
 H         8.1992348227       -1.9902280685      -12.3868102561
 H         9.9695747888       -7.4976183703      -14.2078702276
 H        11.1893357243       -8.0066431841      -13.3278268121
 H        11.6218499633       -7.6460931021      -14.9630436517
 H        13.2370212475       -6.1712301847      -12.7726254801
 H        13.0115368702       -4.4191087431      -13.1964745650
 H        13.5355202220       -5.8175757324      -14.4336657775
 H         8.4680448206       -0.2152320862      -18.6613867508
 H         7.7177542382       -1.5844308510      -17.7443537955
 H         8.8577542807       -1.5667648195      -19.2974505276
 H        11.8958722453       -0.4797651694      -17.3724460697
 H        10.7657354035        0.3613151223      -18.2446385298
 H        11.4386159790       -1.1735119913      -18.8303101667
 Na        7.6257382478       -3.7748524950      -14.9722713024
 Na       -7.7044764997       -1.5172348983      -10.0718602157
