232

 C        10.2755790678       -0.2608754725      -15.1183476895
 C         9.3347595554       -1.1483509306      -15.9442007836
 O         8.2922510585       -1.5967577067      -15.4897964614
 C         9.6688573896       -1.4810269268      -17.5056281718
 C         9.9026778049       -3.0060201239      -17.4817444436
 O         8.9814575171       -3.8042965652      -17.5519309259
 C        11.3053443469       -3.5449586377      -17.2120492351
 C        11.1950272550       -4.9350594126      -16.6022558443
 C        10.7111160711       -4.8747625152      -15.1297300716
 O         9.7683277078       -4.1635532421      -14.9339552447
 C        11.3988429698       -5.6190972300      -13.9624602400
 C        10.6393019900       -4.9063825878      -12.6094374734
 O        10.7243138929       -3.7553229559      -12.2476767644
 C         9.8133596632       -5.8998938944      -11.8280239566
 C         8.5789417381       -5.1401252057      -11.2771411510
 C         7.4343975592       -4.5084281958      -12.1303538140
 O         7.0616676466       -5.1296314841      -13.1122932629
 C         6.9510035442       -3.1457930921      -11.6687360957
 C         5.7269186055       -2.8344604173      -12.5770300498
 O         5.8413002017       -3.0691814462      -13.7739941769
 C         4.3597532213       -2.3609640836      -12.0050354029
 C         3.1503006094       -3.1803411948      -12.6163146797
 C         2.6956926781       -4.2836241766      -11.7590837720
 O         3.0922359256       -4.4671495443      -10.6333869709
 C         1.6762005358       -5.3406353009      -12.4665547520
 C         0.4016596654       -4.5912171321      -12.9528445094
 O         0.3818718718       -4.0096223416      -14.0326057604
 C        -0.7988082537       -4.7195232437      -12.0998396854
 C        -2.0188541311       -3.7357323490      -12.3002519612
 C        -3.2406333271       -4.4456492250      -12.6892036429
 O        -3.3244508150       -5.6413422585      -12.7587577222
 C        -4.5108291430       -3.3954461945      -13.0401392116
 C        -5.3894662352       -3.0381587244      -11.8350814504
 O        -5.3382904130       -1.8936234134      -11.4192837444
 C        -6.2087929560       -4.1745235082      -11.1353203700
 C        -5.4140199045       -4.8832482435       -9.9341690358
 C        -5.5428366242       -4.0023779114       -8.7296498335
 O        -6.3174343790       -3.0838577331       -8.7953104523
 C        -4.8528456951       -4.3173748634       -7.3954974213
 C        -4.4710674272       -2.9719732991       -6.7377199221
 O        -3.2882934624       -2.7448843543       -6.5791192195
 C        -5.4316864562       -1.9520816032       -6.3601815106
 C        -4.9505857176       -1.1055892652       -5.2522823136
 C        -6.2321903970       -0.4325754757       -4.7616869021
 O        -7.1970450075       -1.1855314211       -4.4987009057
 C        -6.5259776794        1.1241045471       -4.4938078273
 C        -6.8481551715        1.8159936590       -5.9457362230
 O        -5.9664101824        2.3912588328       -6.5597511239
 C        -8.3380173621        1.8998897893       -6.4151184574
 C        -8.5341609571        2.0107809426       -7.8908711188
 C        -7.4069337801        1.4080392348       -8.7042081287
 O        -6.9865229224        0.2959917753       -8.4456706161
 C        -6.7112919056        2.1924490343      -10.1278375066
 C        -7.5716844633        1.6852773817      -11.2892222999
 O        -7.9701242557        0.5616700626      -11.2474608003
 C        -7.7353480838        2.5424121194      -12.6369520333
 C        -7.9552858605        1.5006619200      -13.8091160413
 C        -9.2958880791        0.7766423797      -13.5522046202
 O       -10.2784269405        1.3830691823      -13.1057316218
 C        -9.4136276852       -0.7895525345      -13.7864502565
 C        -9.4225088047       -1.4250495040      -12.3671155626
 O        -8.5886725883       -2.2578352840      -12.0807423892
 C       -10.5866205532       -1.0411853462      -11.3892445637
 C       -11.3294470640       -2.1178542575      -10.6771139007
 C       -10.6487120585       -2.3216531454       -9.2727614421
 O        -9.4614434875       -2.0149829343       -9.0602283939
 C       -11.3374291955       -2.9709190795       -8.1635698608
 C       -12.8743106230       -2.5682768482       -7.9447745216
 O       -13.5797225364       -2.5049257801       -8.9308406326
 C       -13.4536661302       -2.2363792799       -6.5371196364
 C       -14.1829676924       -0.9254847236       -6.6487030466
 C       -13.2632751238        0.1833813715       -7.0255263463
 O       -12.1564080331       -0.0837646353       -7.4856184722
 C       -13.5766382337        1.6069677557       -6.7358960286
 C       -13.4683526495        1.8125416231       -5.1379311002
 O       -13.7255829702        0.9313279583       -4.3119818025
 C       -13.1920810038        3.1866285180       -4.5945507417
 C       -13.1303056453        3.3551758380       -3.0906706336
 C       -11.7104001461        3.3512877697       -2.4824629559
 O       -10.8160599873        2.9186032408       -3.1931288426
 C       -11.5350408926        3.7795808053       -1.0439537051
 C       -11.8040248031        5.3739885324       -1.0024766993
 O       -11.7149770800        5.9658483279       -2.0435150891
 C       -12.0966359630        5.9534397853        0.3941297624
 C       -12.5964995365        3.1336294834       -0.1711290896
 C       -10.1146324488        3.3761170805       -0.6090303474
 C       -12.4607946549        2.5847080653       -7.4154109913
 C       -15.0961095988        1.8902932150       -7.2253838676
 C       -11.5967735827       -4.4742843272       -8.6949051665
 C       -10.4555519963       -3.0844741708       -6.8648442019
 C       -10.9209665834       -1.0092860268      -14.4055953031
 C        -8.3240665959       -1.3805654400      -14.6687551736
 C        -6.8386280571        3.7872669018      -10.0455739368
 C        -5.2029213809        1.7933704970      -10.2259059593
 C        -7.7606629095        1.4363333194       -3.5511436209
 C        -5.2698204278        1.7139211919       -3.7880284869
 C        -6.0106798974       -5.0684251136       -6.5642352166
 C        -3.5810649569       -5.2136880529       -7.5797505585
 C        -3.9419819880       -2.0389699882      -13.6566055973
 C        -5.4590467539       -3.9501814819      -14.2218881685
 C         2.3090221960       -6.0054992475      -13.7433757740
 C         1.3302481956       -6.3685117470      -11.2887664606
 C         6.5820073230       -3.0913519254      -10.2293407084
 C         8.0445608742       -2.1414344026      -12.1733497120
 C        11.3833182209       -7.1691805224      -14.0302437073
 C        12.8985187341       -5.2354130508      -14.0098102861
 C         8.3699835881       -1.1273321305      -18.3820850308
 C        10.9410272090       -0.6410790784      -17.9868135129
 H        10.2591096376        0.6946800815      -15.6497545561
 H        11.3028064438       -0.6421904967      -15.2777624138
 H        10.0052480802       -0.2387722105      -14.0249801459
 H        11.7748221601       -2.8324568309      -16.5379956888
 H        11.8141028989       -3.5387545784      -18.1458337005
 H        12.1353145850       -5.3877598710      -16.5775967780
 H        10.5075857514       -5.6000894902      -17.0693552726
 H        10.3052054783       -6.4033534616      -11.0464301561
 H         9.5782763486       -6.6554071715      -12.5676722162
 H         8.9336948190       -4.5558685101      -10.4376347422
 H         8.1550954600       -6.0216908258      -10.7367156759
 H         4.1833898946       -1.2707346154      -12.1879642995
 H         4.3365970311       -2.5702764758      -10.9978961618
 H         3.4507871369       -3.5655472616      -13.6073986108
 H         2.3161137113       -2.4306338932      -12.7511087062
 H        -0.5466711146       -4.5709845081      -11.0067307055
 H        -1.2595756575       -5.7364742500      -12.2010087510
 H        -1.7810903877       -2.9856105835      -13.0542460999
 H        -2.2490137641       -3.2057378104      -11.3836699198
 H        -6.5201553033       -4.9175576359      -11.8224456651
 H        -7.1855985001       -3.8655811019      -10.7826302760
 H        -4.3991476881       -5.1800505863      -10.1908980898
 H        -5.8963046158       -5.8578260332       -9.7792848158
 H        -6.4027250660       -2.3479033850       -6.1313057119
 H        -5.5108523248       -1.3548425575       -7.3147237817
 H        -4.3220667428       -0.3720693923       -5.6258124357
 H        -4.3709196619       -1.6506417690       -4.4510877266
 H        -8.9252175939        2.7229620405       -5.8740436985
 H        -8.9175778196        0.9417554486       -6.1621187152
 H        -8.7924553307        2.9894287316       -8.3604006030
 H        -9.5065330383        1.5425098576       -8.0803827348
 H        -6.8724406996        3.0517477116      -13.0111872572
 H        -8.4829941718        3.3348305301      -12.5843372114
 H        -6.9848002000        0.8879172473      -13.8996896840
 H        -8.0390031595        2.1022991376      -14.7169863842
 H       -11.3706410576       -0.3849498057      -11.8696648644
 H       -10.0332641935       -0.4064912651      -10.6976855084
 H       -11.2930991392       -3.0564910911      -11.2714580515
 H       -12.3878377718       -1.8653901989      -10.4702906959
 H       -12.4854216177       -2.0561800297       -5.9735593507
 H       -13.9962293851       -3.1030869962       -6.1656710194
 H       -14.4306384592       -0.6172951610       -5.6135618951
 H       -15.0838227559       -0.8599382627       -7.2834291329
 H       -14.0479773062        3.7411061292       -4.9655798054
 H       -12.2661137585        3.5295929871       -5.0994907817
 H       -13.6710064288        2.5218039657       -2.5465893059
 H       -13.6962363708        4.2357873784       -2.8045890897
 H       -13.0935749060        5.6077357709        0.7254741760
 H       -12.1626972088        7.0308249397        0.3178848285
 H       -11.4875998330        5.7568658490        1.3205687246
 H       -12.6669646232        2.0685469494       -0.1869711903
 H       -13.5394562890        3.4899803415       -0.4293658600
 H       -12.3596133502        3.4084074142        0.8437845659
 H        -9.9804287059        2.3216266957       -0.6815844349
 H        -9.9534733645        3.7884608561        0.4218104959
 H        -9.3248242818        3.8501977756       -1.1805700455
 H       -12.5413703207        2.5637634404       -8.5266936410
 H       -11.5165547135        2.3353590927       -7.1067965967
 H       -12.6730394630        3.6329177774       -7.1578895411
 H       -15.7856932490        1.3001592750       -6.7058016521
 H       -15.1855015384        1.5691939185       -8.2671887460
 H       -15.4370913727        2.9016309327       -7.1984672618
 H       -12.4512805291       -4.4958535659       -9.3582144791
 H       -11.8742598081       -5.2013811263       -7.8957822513
 H       -10.7394195490       -4.8883096121       -9.1907582721
 H       -10.5646913530       -2.2864870148       -6.0496618585
 H        -9.4158059520       -3.1993427722       -7.2337154410
 H       -10.7947679103       -3.9881416664       -6.3376875776
 H       -11.0054829176       -1.0096639773      -15.4874937041
 H       -11.5276899952       -0.2217510852      -13.9941680152
 H       -11.3920215893       -1.9028125958      -14.1657896581
 H        -7.2960243636       -1.3698253666      -14.4436528545
 H        -8.3471790060       -0.9907416824      -15.7601361727
 H        -8.6136150229       -2.4110955938      -14.8710553249
 H        -6.2731909972        4.2331798812      -10.8365705065
 H        -6.2874102088        4.0494721733       -9.1372277850
 H        -7.7945568431        4.0714777939       -9.9817920384
 H        -5.0256069135        0.7677226819      -10.4361209765
 H        -4.6413400450        1.9973354729       -9.2719657330
 H        -4.5564237972        2.3645850818      -10.8829168707
 H        -7.8086693194        2.4666446849       -3.3467027508
 H        -7.6704403484        1.0001163010       -2.6348931674
 H        -8.7024675864        1.2292664407       -3.9163455973
 H        -4.3148968753        1.2875072481       -4.0639250268
 H        -5.3806246949        1.6321931770       -2.7225776695
 H        -5.2060018321        2.7966568708       -4.0801165409
 H        -6.3044839727       -6.0060572393       -7.1193349691
 H        -6.8991713840       -4.4184387386       -6.7021338939
 H        -5.9890485345       -5.2071326827       -5.5378265960
 H        -2.6747396321       -4.7379415548       -7.9067150829
 H        -3.7229942433       -6.0334555936       -8.2530492096
 H        -3.4275317594       -5.7575933384       -6.6159848413
 H        -3.2163752044       -2.2883989947      -14.4799637040
 H        -3.4372343932       -1.2930707526      -13.0924209746
 H        -4.7358774890       -1.5171092264      -14.2117104103
 H        -6.4621812646       -3.5166370397      -14.2688115422
 H        -5.6857369892       -5.0154462302      -14.0100993070
 H        -4.9448922759       -4.1329483857      -15.1844751337
 H         3.2839487749       -6.5531643832      -13.5726370926
 H         2.3110578146       -5.1821127485      -14.4952400499
 H         1.5145900315       -6.6648217608      -14.1625681101
 H         2.2252297622       -6.9055514743      -11.0580397295
 H         0.6533130950       -7.1033222798      -11.6939306946
 H         0.7990359336       -5.9384494469      -10.4724630517
 H         5.6249975302       -3.5920994804       -9.9556526561
 H         6.3632660829       -2.0837600275       -9.9547045528
 H         7.3199168103       -3.5133903073       -9.5835600570
 H         9.0300248953       -2.3286736381      -11.6947156331
 H         7.7208504400       -1.1751746274      -11.9730939798
 H         7.9790485422       -2.2228532591      -13.3002070232
 H        10.4107482906       -7.4738914414      -14.2556034968
 H        11.8893654345       -7.6156523804      -13.1578430074
 H        11.8595099407       -7.5298967956      -14.8978156847
 H        13.3153041865       -5.5619630563      -12.9893852648
 H        13.0104146941       -4.2368198119      -14.2381748592
 H        13.3249548559       -5.8562060833      -14.8345718908
 H         7.9955488464       -0.0280781315      -18.2920669604
 H         7.5396543522       -1.8393261387      -18.1261815214
 H         8.5770451163       -1.3636543919      -19.4213615928
 H        11.6874349519       -0.7196250008      -17.1581870936
 H        10.8772984652        0.3942526849      -18.2826390288
 H        11.4021697374       -1.0486361765      -18.8554118244
 Na        7.4565521901       -3.8923404346      -15.2891505811
 Na       -7.3238306218       -1.5104810897      -10.2541354559
