232

 C        10.2391250626       -0.2604759694      -15.2337987544
 C         9.2774860391       -1.1010272799      -16.0119565398
 O         8.1118959985       -1.3053287514      -15.5783207491
 C         9.4719006957       -1.5362258062      -17.5395738205
 C         9.4900332638       -3.1504051716      -17.4244880379
 O         8.4405285050       -3.8258521978      -17.4239992131
 C        10.8761273596       -3.8630671457      -17.3960209119
 C        10.9773401577       -5.1536674637      -16.5177364921
 C        10.6618033239       -4.8439337202      -15.0077555389
 O         9.6917439977       -4.1758987648      -14.7168940502
 C        11.5991579409       -5.4280128518      -13.8913388432
 C        10.8167993946       -5.1414324793      -12.5549032247
 O        11.0718051751       -4.0280351090      -12.0337202336
 C         9.8078318779       -5.9469825312      -11.6494283590
 C         8.6378822362       -5.0557807848      -11.2003770434
 C         7.8441254634       -4.3407996761      -12.3037740965
 O         7.8313674753       -4.7929463032      -13.4190241906
 C         7.1554545683       -2.9849031436      -11.9926886297
 C         5.7721079454       -3.0194066992      -12.8052124010
 O         5.7780356552       -3.0378772809      -14.0187713271
 C         4.4272646732       -2.5126229285      -12.1695941346
 C         3.0840984253       -3.2396295588      -12.5668508342
 C         2.8565440496       -4.5326209029      -11.8694057401
 O         3.6502228555       -4.9148339806      -11.0337410726
 C         1.5925623842       -5.4689552899      -12.1539418906
 C         0.4514707465       -4.4717913309      -12.6332099082
 O         0.7988874408       -3.6560689868      -13.5210588911
 C        -0.9943806477       -4.5089990765      -12.2438801869
 C        -1.9430051991       -3.5988188846      -13.1181147084
 C        -3.2971988314       -4.0921718609      -12.9102777115
 O        -3.5207625642       -5.1160583994      -12.2388311215
 C        -4.6193381252       -3.3231854257      -13.4165056869
 C        -5.4576783396       -2.9718184074      -12.0848155628
 O        -5.4015441747       -1.8710181360      -11.5549836010
 C        -6.2363073652       -4.0271429519      -11.2928949397
 C        -5.2802999588       -4.4829907221      -10.0251914597
 C        -5.8537768303       -4.1534497155       -8.6970961871
 O        -6.8973516747       -3.5850868707       -8.4945394739
 C        -4.9000536674       -4.3772483690       -7.3691174192
 C        -4.3533930886       -3.0787545430       -6.8084223188
 O        -3.2066679444       -2.9371813717       -6.5007779912
 C        -5.3332744441       -1.9431285223       -6.4700749461
 C        -4.9618428043       -0.6914461752       -5.6228311446
 C        -6.1932308465       -0.3070199335       -4.7210170380
 O        -7.0664062565       -1.1676382362       -4.5217508802
 C        -6.4574556025        1.1853659876       -4.3249466645
 C        -7.0252120622        1.7742040111       -5.7027432214
 O        -6.3378579564        2.5598089186       -6.3405863138
 C        -8.3979028729        1.2705233876       -6.3520134136
 C        -8.4870414280        1.9413343418       -7.7029962759
 C        -7.3772578494        1.2521657566       -8.6223964375
 O        -7.0593316149        0.1157515953       -8.3191891421
 C        -6.7619874868        1.9804830844       -9.9842748076
 C        -7.4840947903        1.3662872791      -11.2285505152
 O        -7.8676290640        0.2707254942      -11.3678140378
 C        -7.6833421106        2.2846100623      -12.5458239953
 C        -8.0469160204        1.4420599088      -13.7181098718
 C        -9.4156172688        0.7640361732      -13.5504539093
 O       -10.3254534363        1.5195400302      -13.2212254859
 C        -9.6141592774       -0.7158289289      -13.8739715025
 C        -9.8655149040       -1.5133730350      -12.4527848400
 O        -9.1027982662       -2.4026254436      -12.1867812602
 C       -10.8477642171       -0.7733870711      -11.4366350825
 C       -11.4831391642       -1.7994963522      -10.4938003127
 C       -10.5898969469       -1.9874993174       -9.1879893876
 O        -9.5079252786       -1.4108085672       -8.9808398236
 C       -11.1865514362       -3.0779128183       -8.1441993878
 C       -12.7138641712       -2.8407338509       -7.9771107982
 O       -13.4814063805       -2.8775805143       -8.9281783293
 C       -13.3016023037       -2.3299306067       -6.5864947771
 C       -14.0274333742       -0.9072008276       -6.4575194457
 C       -13.2163079090        0.1509546788       -7.1956549877
 O       -12.3926633844       -0.1436821480       -8.0861597117
 C       -13.5812485578        1.6113635897       -6.8059447632
 C       -13.3684982498        1.8203996909       -5.2152241171
 O       -13.5651602016        0.9125362676       -4.4524425297
 C       -12.7903327650        3.1869431907       -4.6196175021
 C       -12.9000909150        3.2917088081       -3.1154140983
 C       -11.5511720112        3.0955800982       -2.3781794299
 O       -10.5906566520        2.6347713799       -2.9087817912
 C       -11.4119164076        3.7237421046       -0.8887092227
 C       -11.9557978228        5.2891659106       -0.8174339899
 O       -12.0112050243        5.9520589697       -1.8160818533
 C       -11.9764326194        6.0669924987        0.5096534533
 C       -12.2738711092        2.7940204777        0.0241628503
 C        -9.9069656728        3.7251550425       -0.5142185144
 C       -12.7138651324        2.4444690453       -7.6490335501
 C       -15.0521195357        2.0236613797       -6.8735913615
 C       -10.9528795684       -4.5683569772       -8.6156085030
 C       -10.4182633004       -2.9176961493       -6.8381065553
 C       -10.8580939344       -0.8824954920      -14.8707496909
 C        -8.3636225833       -1.2669051105      -14.4542176365
 C        -6.8835032139        3.5106337902       -9.8478168486
 C        -5.3328287379        1.5702339530      -10.2305519672
 C        -7.5318091454        1.4690092533       -3.2772058964
 C        -5.1745901748        1.9406956019       -3.8977342469
 C        -5.8402919279       -4.8969203664       -6.1959652727
 C        -3.9071901519       -5.3643169592       -7.6616539176
 C        -4.4854715076       -2.0474815696      -14.0971645883
 C        -5.3960544250       -4.2448352492      -14.3800375735
 C         1.9684964409       -6.2585775850      -13.4619213551
 C         1.2145290224       -6.3784157906      -11.0763937943
 C         6.8760533440       -2.7884837887      -10.5375295210
 C         7.9428394266       -1.8900843843      -12.6503645322
 C        11.7735293983       -6.9130591575      -14.1814114942
 C        12.9447350066       -4.7087156130      -13.8254556591
 C         8.2040299031       -1.1547116473      -18.2219990959
 C        10.7201148129       -0.9671884213      -18.2624118360
 H        10.2879235687        0.7213796704      -15.8218733253
 H        11.2003613075       -0.7027387225      -15.3144575675
 H         9.9251278351       -0.1893744310      -14.1976870175
 H        11.6367374306       -3.1024960583      -17.2297709060
 H        11.0255362777       -4.2766678919      -18.3652928847
 H        11.9831780624       -5.5563931286      -16.6371296751
 H        10.2822245642       -5.9256763020      -16.8917485374
 H        10.5147951011       -6.2227641245      -10.8874096167
 H         9.5031372881       -6.9169631302      -12.0992416062
 H         9.1375268415       -4.2763897270      -10.6523011271
 H         8.0286855991       -5.5826935087      -10.4508345668
 H         4.4706770872       -1.3886826116      -12.4361853862
 H         4.4359653431       -2.4447016324      -11.1110609794
 H         3.0918595734       -3.4099267288      -13.6704595681
 H         2.1831856469       -2.5166289137      -12.4363744980
 H        -1.1142802801       -4.2377312549      -11.1620273965
 H        -1.3442771316       -5.5373570476      -12.2091844637
 H        -1.6424421032       -3.5745425455      -14.1575170548
 H        -1.8104562795       -2.5637601572      -12.8658739279
 H        -6.4825526105       -4.8550975115      -11.9168978781
 H        -7.2517413935       -3.7112934528      -11.0541143330
 H        -4.3479029524       -3.9677482802      -10.1594603414
 H        -4.9041493902       -5.4911217127      -10.1212753981
 H        -6.0161006009       -2.4557289050       -5.7921449380
 H        -5.9399604459       -1.6762769069       -7.3851341425
 H        -4.5438361183        0.0571422612       -6.1865615613
 H        -4.0693971074       -0.8846188819       -5.0080222463
 H        -9.3108838429        1.4922288477       -5.7684887111
 H        -8.3180059686        0.1658956530       -6.4732666618
 H        -8.3975694364        3.0416622879       -7.5750748823
 H        -9.4476728316        1.8748935723       -8.2808768562
 H        -6.8616040925        2.9157445943      -12.7400328985
 H        -8.4767854385        2.9781695514      -12.5588264203
 H        -7.2007508573        0.7826862813      -13.9847886670
 H        -8.1822979276        2.0224995915      -14.6109947824
 H       -11.6850320350       -0.2919591201      -11.9764507296
 H       -10.3212299473       -0.0477095973      -10.8458527377
 H       -11.4376806986       -2.8525882002      -10.7563847385
 H       -12.4868072479       -1.5274654838      -10.2826977305
 H       -12.4279268363       -2.4410923565       -5.8729266376
 H       -14.0436046727       -3.0588685047       -6.3342390357
 H       -14.2817598423       -0.6884398020       -5.3791555069
 H       -14.9203226827       -0.8822542340       -7.1197910740
 H       -13.3604427537        3.9565510040       -5.1115734501
 H       -11.7167742420        3.1552437220       -4.9346490096
 H       -13.7291415451        2.6937606839       -2.6401152840
 H       -13.1690331604        4.3148287631       -2.8637075638
 H       -12.9191181211        6.5347505714        0.5551593985
 H       -11.2998109233        6.9213273695        0.5667084649
 H       -11.8248221861        5.5329921810        1.4515903647
 H       -11.9316707991        1.7580596801       -0.1671772047
 H       -13.2856847889        2.8206174405       -0.2945986106
 H       -12.2080862566        2.9046313401        1.1125570462
 H        -9.6725721795        2.7270557972       -0.6848099025
 H        -9.6978699089        3.9203503460        0.5328748396
 H        -9.3009968224        4.3297480043       -1.1333450752
 H       -12.9069953018        2.2562386405       -8.6569052215
 H       -11.6970004705        2.2799257140       -7.4978423286
 H       -12.9063465281        3.5008327218       -7.3945080443
 H       -15.6735853423        1.2769426901       -6.4612519883
 H       -15.5863507120        2.1993746122       -7.8577101287
 H       -15.1641998644        2.8375846484       -6.2179815303
 H       -11.3614762574       -4.7229945617       -9.5718851402
 H       -11.3510231418       -5.3038317131       -7.9074836256
 H        -9.9339162192       -4.8650970798       -8.5708980454
 H       -10.6483583384       -1.9834648283       -6.3649851047
 H        -9.3449771041       -2.9949327616       -6.9751855825
 H       -10.6061512007       -3.7459952882       -6.2202036150
 H       -10.8626403788       -0.1961590437      -15.7920243607
 H       -11.7527502432       -0.5041522774      -14.3278566632
 H       -11.0923593284       -1.9080322513      -15.1450599061
 H        -7.4898523646       -1.1959578960      -13.9215423886
 H        -8.0851241343       -0.7910238852      -15.4339169729
 H        -8.5276383053       -2.2908640332      -14.7565748838
 H        -6.6190590975        3.9853462740      -10.7802299019
 H        -6.2289512380        3.7939889624       -9.0398099643
 H        -7.8612906180        3.7204518750       -9.5844900218
 H        -5.0435394681        0.5924770176      -10.0298541887
 H        -4.6187655025        2.1476578375       -9.6105081475
 H        -5.0120904524        1.7863101221      -11.2130024277
 H        -7.8694186858        2.4862343989       -3.2507001757
 H        -7.1821526807        1.2498816299       -2.3783631892
 H        -8.3815863253        0.9891661458       -3.3986152513
 H        -4.6109236545        2.2565998916       -4.7309478330
 H        -4.4646616989        1.3861742844       -3.3342388170
 H        -5.4890237301        2.8521573942       -3.3667736759
 H        -6.4615224290       -5.7146804620       -6.5916908458
 H        -6.6174310329       -4.1555502640       -5.9956604001
 H        -5.4198064039       -5.2567101498       -5.3003511548
 H        -3.1703791049       -5.1101124036       -8.4247755227
 H        -4.3099091640       -6.3548400582       -7.8655582068
 H        -3.3434379342       -5.5507266521       -6.7312804099
 H        -3.7730336597       -2.0065706876      -14.9648426996
 H        -4.1209450795       -1.3182030326      -13.4555234056
 H        -5.4480054555       -1.7976352621      -14.4865217913
 H        -6.5148176136       -4.0950266228      -14.3302904333
 H        -5.3899186927       -5.3760404041      -14.1815419085
 H        -5.2364539452       -3.9508628932      -15.4423745362
 H         2.9443389970       -6.6459279178      -13.3137147643
 H         1.9580933841       -5.5306981321      -14.2086639111
 H         1.2877912527       -7.0382998640      -13.6866076201
 H         2.0974243263       -6.9330216622      -10.8022854902
 H         0.4049100542       -7.0666051285      -11.3036901978
 H         0.9040293701       -5.7536633295      -10.2640772230
 H         6.0544898461       -3.4984385238      -10.1684131879
 H         6.4917262193       -1.7802708928      -10.3103012645
 H         7.6900807860       -2.9531742701       -9.9212939527
 H         9.0364819608       -2.0850158680      -12.4083947679
 H         7.5816985371       -0.9089987537      -12.4008718393
 H         7.7355051077       -2.0349878446      -13.7111208573
 H        10.9833502371       -7.2146781457      -14.8287117321
 H        11.9852691303       -7.4679555521      -13.2704512701
 H        12.6576820014       -7.2001911653      -14.7224008456
 H        13.4264386962       -5.1756354061      -13.0062591294
 H        12.6597828906       -3.7443767543      -13.4806875151
 H        13.4664012752       -4.6819386054      -14.8512053556
 H         8.1943284727       -0.0990848540      -18.1964787159
 H         7.3413028849       -1.3981577787      -17.6854098034
 H         8.0557945653       -1.6615698591      -19.1328632455
 H        11.6850709106       -1.2920115350      -17.6905452932
 H        10.5990301726        0.1482299532      -18.1074174260
 H        10.8605742234       -1.2196824814      -19.3359346274
 Na        7.4203206729       -3.5610082488      -15.4589154671
 Na       -7.2601668471       -1.5401614483       -9.8238206171
