232

 C        10.2590559404       -0.2049740134      -15.3807081685
 C         9.1695037513       -1.0631118601      -16.0481513375
 O         8.0950940902       -1.1754253809      -15.5127592484
 C         9.4564389426       -1.6495528388      -17.4956247181
 C         9.4934051760       -3.2829162569      -17.4857214769
 O         8.4485701601       -3.9391102973      -17.5058888433
 C        10.8495295088       -3.9576919368      -17.5081134996
 C        10.8557572939       -5.1944182535      -16.5533092045
 C        10.7935226969       -4.7063753306      -15.0733432622
 O         9.8842284184       -3.9194978545      -14.8676909020
 C        11.5956439230       -5.4043010728      -13.9125695015
 C        10.9044483480       -5.0987554701      -12.3995621761
 O        11.1869345478       -4.0443501573      -11.8571601667
 C         9.7441758379       -5.9678176476      -11.6159349059
 C         8.5982161195       -5.0684594556      -11.1489852070
 C         7.8421670206       -4.3929475340      -12.3110055983
 O         7.8115784421       -4.9255693838      -13.4113246367
 C         6.9737359762       -3.0362179154      -12.0576716150
 C         5.6939512622       -2.8324833407      -12.8436938518
 O         5.5954774318       -3.0709176448      -14.0378662600
 C         4.4129426665       -2.4121140732      -12.0903751156
 C         3.2802884212       -3.3063464504      -12.5302433925
 C         2.9612751478       -4.5857224441      -11.7975814947
 O         3.6991138132       -5.1916456569      -11.0431988196
 C         1.5976345927       -5.3782287475      -12.1719688351
 C         0.4398636656       -4.3166113838      -12.7058492979
 O         0.7528573467       -3.5025043031      -13.5498299612
 C        -0.9966958429       -4.4392787526      -12.2903215779
 C        -1.9454567673       -3.7291171827      -13.3274456092
 C        -3.4079071919       -4.0462840952      -12.8909563863
 O        -3.5883205544       -5.0267674559      -12.1645894412
 C        -4.7593914748       -3.2313346690      -13.4166041354
 C        -5.5446329550       -3.0325784838      -12.0889167902
 O        -5.6086743257       -1.8609543971      -11.7375104194
 C        -6.1729706617       -4.1592339775      -11.2368047603
 C        -5.3022882580       -4.3891861432      -10.0732168158
 C        -5.9337936635       -4.1002282406       -8.6319400368
 O        -7.1228561211       -3.7914454713       -8.5234404428
 C        -5.0130677422       -4.4048144784       -7.3637374904
 C        -4.3735133881       -2.9007464066       -6.7787259421
 O        -3.2144285729       -2.8945455730       -6.4449709132
 C        -5.4289815855       -1.8493623815       -6.4027005007
 C        -4.9195525989       -0.6918248387       -5.5628100163
 C        -6.1545944173       -0.2702321517       -4.6657556177
 O        -6.9740575828       -1.1353068067       -4.5397038960
 C        -6.3796269427        1.1727501057       -4.3932810746
 C        -6.9138970931        1.7826943586       -5.6777907981
 O        -6.3813423418        2.6425451752       -6.2964517516
 C        -8.2693284912        1.2774086982       -6.1762796056
 C        -8.5588107243        1.7719526739       -7.6630523948
 C        -7.4364993942        1.2845813703       -8.7190154818
 O        -7.0355069923        0.1187763874       -8.4672095571
 C        -6.7942590167        1.9604062804       -9.9563917473
 C        -7.5654671925        1.3400311151      -11.2490631578
 O        -7.7760599670        0.1311113359      -11.2490739231
 C        -7.7087765655        2.2598864440      -12.4027043518
 C        -8.0192158157        1.5737345744      -13.7338817210
 C        -9.4207589432        0.8977134559      -13.6324214810
 O       -10.3663609561        1.5731937998      -13.3808054875
 C        -9.5852383479       -0.6987989821      -13.8510083447
 C        -9.8581008058       -1.4301739467      -12.5143692349
 O        -9.2718330884       -2.4517148789      -12.1698837253
 C       -10.8101636286       -0.8588756897      -11.4776336212
 C       -11.4436062276       -1.8305340794      -10.5120975004
 C       -10.6030623575       -2.0232640567       -9.1848004885
 O        -9.6152500543       -1.3151770041       -9.0787835358
 C       -11.1460782513       -3.0253090594       -8.1245182078
 C       -12.7263115279       -2.8005436252       -7.8957657561
 O       -13.4607339522       -3.2276064439       -8.7443653189
 C       -13.3266747142       -2.4454011711       -6.5062797452
 C       -14.0624581170       -1.0867468105       -6.5395246899
 C       -13.2666867648        0.1295322371       -7.1626146051
 O       -12.4222666956       -0.0477046777       -7.9972488543
 C       -13.5416168417        1.7091584505       -6.6745322696
 C       -13.2185997676        1.7436746836       -5.1908295555
 O       -13.5337879390        0.9505381816       -4.3488813883
 C       -12.5847397666        3.1208555884       -4.6962209068
 C       -12.7922593429        3.2959069420       -3.2227978420
 C       -11.4999385870        3.1461612149       -2.4426449211
 O       -10.5403646322        2.5746724426       -2.9331072650
 C       -11.3688970416        3.6991025386       -0.9780394866
 C       -11.8632281338        5.2887353542       -0.8080256047
 O       -12.2160895039        5.8575921746       -1.8355104443
 C       -11.9767727855        5.8958437090        0.5525841808
 C       -12.2007274916        2.8767705269        0.1272156094
 C        -9.9350616729        3.6992871893       -0.5049891052
 C       -12.7155435943        2.6398571533       -7.7005828721
 C       -15.0762512905        2.0513858903       -6.8123865219
 C       -10.9189607673       -4.4035711206       -8.6959929398
 C       -10.3459289036       -2.8660116999       -6.7834228193
 C       -10.7789847347       -0.7865298267      -14.7184103189
 C        -8.3638092450       -1.3477735324      -14.5658670391
 C        -6.8582046254        3.5364894310       -9.8771774506
 C        -5.2613907514        1.5611890604      -10.1484964600
 C        -7.5749218990        1.3512726699       -3.3264927543
 C        -5.0966191009        1.9032521542       -3.9659055417
 C        -5.9265996499       -4.9445593845       -6.3184649584
 C        -3.8078690326       -5.4260896257       -7.5199002532
 C        -4.3657659140       -1.8774829279      -14.1333878191
 C        -5.4277605233       -4.3121049943      -14.2317548130
 C         1.7449154402       -6.3071837434      -13.4865046695
 C         1.3597679067       -6.2757155469      -10.9558165315
 C         6.9253363150       -2.7078640987      -10.4711573998
 C         7.9854377071       -1.9037388724      -12.6038437649
 C        11.8916887268       -6.8838308969      -14.1952516096
 C        13.0776685909       -4.6069144152      -13.9948720571
 C         8.1130451910       -1.1749984723      -18.3248758332
 C        10.6579772881       -1.0989014512      -18.2413707567
 H        10.4686157438        0.7573375189      -15.9678303868
 H        11.1846438131       -0.7992476862      -15.3612036001
 H         9.9070560964       -0.0896179600      -14.3521225347
 H        11.5767660500       -3.1894101374      -17.2794287045
 H        11.0902611366       -4.3573460772      -18.4802683514
 H        11.7304841805       -5.7711760851      -16.7233614217
 H        10.0247683385       -5.8243068332      -16.7151783679
 H        10.2458305073       -6.4855803839      -10.8102701079
 H         9.4517064950       -6.7076975648      -12.3017993724
 H         9.1256825057       -4.3527645160      -10.4822098090
 H         7.9012480758       -5.6306499212      -10.5062549546
 H         4.2382490623       -1.4014866260      -12.1948253424
 H         4.4470221782       -2.4553297061      -10.9955670514
 H         3.3491018632       -3.5002816688      -13.5916117707
 H         2.3552165650       -2.6799300562      -12.4764104970
 H        -1.0906632495       -4.0176550035      -11.2223664899
 H        -1.2703368504       -5.4964508437      -12.0652535451
 H        -1.7345285656       -4.1527775675      -14.3352943070
 H        -1.6040707422       -2.7478738003      -13.5070189317
 H        -6.3934516338       -5.0159983837      -11.8424731244
 H        -7.1658662189       -3.9060584516      -10.9108691033
 H        -4.3537059319       -3.9314085231      -10.3231849489
 H        -4.9664250847       -5.4287704552      -10.0899376782
 H        -6.2004880313       -2.4068911607       -5.8615023627
 H        -5.8684808071       -1.4751809224       -7.3319200117
 H        -4.5053008601        0.1124901279       -6.2433816002
 H        -3.9468711698       -0.9089514144       -5.1709642238
 H        -9.0474200428        1.8441929212       -5.5314012895
 H        -8.4848300685        0.1510770846       -6.0617745821
 H        -8.8038927498        2.8160446118       -7.7189061894
 H        -9.5273209613        1.2778146806       -8.0510818318
 H        -6.8166479969        2.9184767927      -12.4093597748
 H        -8.4807483573        2.9826524293      -12.1860610138
 H        -7.1756125034        0.9136204359      -13.9591472781
 H        -8.1164265879        2.1686078356      -14.7032688039
 H       -11.7000963002       -0.4005553685      -11.9099334688
 H       -10.2770790010       -0.0890296556      -10.8570471948
 H       -11.7754226212       -2.8629130363      -10.8278220106
 H       -12.3132221037       -1.2581256342      -10.1836797008
 H       -12.5266148823       -2.4863913485       -5.7466391469
 H       -14.1307485397       -3.2144171746       -6.2269841330
 H       -14.3589535862       -0.8753754948       -5.4700974086
 H       -14.9230848110       -1.1659418846       -7.1813145012
 H       -13.1050909070        3.8564836141       -5.2661188029
 H       -11.4905449167        3.0740715749       -4.9113540867
 H       -13.3722087755        2.4518242296       -2.7757095870
 H       -13.3642943087        4.2061618269       -2.9446304939
 H       -12.8622528231        6.5222881899        0.5522705446
 H       -11.1763677361        6.6811942650        0.7510716983
 H       -11.9168887700        5.2605049990        1.4148439398
 H       -12.0297614737        1.8210912801       -0.0001294686
 H       -13.2550679454        3.0539025763        0.1136310494
 H       -11.8449384918        3.0959250559        1.0848532954
 H        -9.5616773172        2.6725924384       -0.4020811936
 H        -9.8704562745        4.1280431357        0.4565156571
 H        -9.3370089760        4.2587810927       -1.2150921571
 H       -13.1119423121        2.6585472526       -8.6522884395
 H       -11.6293177680        2.3882837562       -7.7992396127
 H       -12.7516147573        3.5832023422       -7.2085472685
 H       -15.6639774966        1.2069805322       -6.5446202737
 H       -15.3803993699        2.1529682617       -7.8263036645
 H       -15.3955928043        2.8808260515       -6.2712569750
 H       -11.5065283825       -4.6065416403       -9.5547954126
 H       -11.1577593896       -5.0442137828       -7.8967898902
 H        -9.9003545283       -4.7205431047       -8.8631171849
 H       -10.7852964138       -2.1614013678       -6.0934213735
 H        -9.2899708297       -2.4825865996       -6.9092329290
 H       -10.1267860941       -3.8548116567       -6.3573768157
 H       -10.6638834389       -0.0365391369      -15.4844252958
 H       -11.7405701063       -0.5746347260      -14.3127921274
 H       -10.8370023677       -1.7853213217      -15.1697605760
 H        -7.5221419399       -1.2939852773      -13.8122390474
 H        -7.9513125283       -0.8774846612      -15.4060551938
 H        -8.4539888486       -2.4224629882      -14.8792518360
 H        -6.4930288533        3.8434053705      -10.7946129507
 H        -6.3160908575        3.8495395096       -9.0742745918
 H        -7.8976197603        3.9197652790       -9.7991800780
 H        -4.9319414963        0.5604342324       -9.8256794894
 H        -4.6627041507        2.1571853727       -9.4899860183
 H        -4.8373623689        1.6918818150      -11.1300709813
 H        -7.8725040182        2.3174474747       -3.2836197517
 H        -7.1733746130        1.1355641157       -2.3338541551
 H        -8.5353449296        0.8330918638       -3.4200713448
 H        -4.7175250356        2.5618516881       -4.7164944259
 H        -4.1845092918        1.3280344504       -3.6858085439
 H        -5.3874783193        2.5134869771       -3.1654044321
 H        -6.0779844839       -5.9682988505       -6.4152808241
 H        -6.8948222653       -4.4679637132       -6.2319930580
 H        -5.3873356590       -4.8772472808       -5.2969548415
 H        -3.0458081848       -4.9146260306       -8.1098090462
 H        -4.0227088414       -6.4196755755       -7.9941437345
 H        -3.3498600526       -5.6852426459       -6.6106182349
 H        -3.4962714545       -1.7784915663      -14.7687022604
 H        -4.2032681568       -1.1497952444      -13.3104205745
 H        -5.2068837193       -1.5656741683      -14.7167050495
 H        -6.4774859576       -4.1494107924      -14.5059613644
 H        -5.4729951987       -5.3816793005      -13.9057579602
 H        -5.0233999448       -4.1249630228      -15.2140738383
 H         2.7764076667       -6.6664605779      -13.4826271204
 H         1.4759021382       -5.7583920347      -14.3980146873
 H         1.0858795321       -7.1758569322      -13.3401808790
 H         2.3275718795       -6.6417186039      -10.6458463891
 H         0.6925402630       -7.1202225762      -11.1269823486
 H         1.0246805107       -5.6684438876      -10.1404125710
 H         6.2718473609       -3.2392906025       -9.7964087383
 H         6.7127303871       -1.6155050393      -10.2962644061
 H         7.9360995471       -2.7661739012      -10.0641253154
 H         8.9510560461       -2.0717641886      -12.1274246262
 H         7.4759854813       -0.9258517828      -12.2746635223
 H         8.0391634969       -1.8705206442      -13.6506942951
 H        11.1211042200       -7.3713672087      -14.8041875637
 H        12.1755476821       -7.4001386148      -13.3444970115
 H        12.7955000397       -6.9674920727      -14.7659755260
 H        13.6833836931       -4.9995896305      -13.2619282018
 H        12.9429585558       -3.4961452527      -13.8483677269
 H        13.3664964614       -4.8353080073      -15.0226206815
 H         8.0945125533       -0.1395006808      -18.1251513180
 H         7.1091702454       -1.5176902967      -18.0126448157
 H         8.1868685610       -1.5230269168      -19.4059324613
 H        11.6004570121       -1.0395115467      -17.7431697717
 H        10.3768546259       -0.1294596118      -18.6767889613
 H        10.8234982977       -1.8374210309      -19.0664249188
 Na        7.4374724088       -3.4102968749      -15.4516493822
 Na       -7.3075523127       -1.6679263903       -9.8737654704
