232

 C        10.3239070869       -0.1798990458      -15.5751409984
 C         9.1368956701       -1.0278855626      -16.1566094147
 O         8.1101889946       -1.1065152373      -15.5402712812
 C         9.3680685728       -1.7297194606      -17.5796159766
 C         9.4398784981       -3.3078523048      -17.4692386543
 O         8.4467941407       -3.9800751714      -17.5171361628
 C        10.8356286158       -4.0358239085      -17.5602050558
 C        10.8192426872       -5.2362134163      -16.5625296107
 C        10.6416377369       -4.7057218146      -15.0476275655
 O        10.1620960029       -3.5974922493      -14.8438702264
 C        11.5591053562       -5.3521497381      -13.9233604117
 C        10.9650696794       -4.9256216282      -12.4313576843
 O        11.3332427682       -4.0630886336      -11.7415892402
 C         9.8182132840       -5.8767203597      -11.9673659539
 C         8.6641905439       -5.0782934660      -11.2698138768
 C         7.7332463308       -4.4650734213      -12.2806035243
 O         7.7302630155       -4.9127338301      -13.4275549514
 C         7.0971644296       -2.9969865756      -12.0259928569
 C         5.6945964666       -2.8742926298      -12.7477852910
 O         5.5453307914       -3.0579199390      -13.9648760819
 C         4.4408164217       -2.5305352976      -11.9739317455
 C         3.2843482898       -3.2876875164      -12.5104896492
 C         3.0578371811       -4.7321547157      -11.9319323967
 O         3.8346599759       -5.2132900028      -11.1366391737
 C         1.6115874900       -5.2908188758      -12.2256208349
 C         0.4720172599       -4.2419395180      -12.7758038091
 O         0.7262408842       -3.3994063111      -13.5714509422
 C        -1.0012758055       -4.3990899198      -12.3126334358
 C        -2.0078373149       -3.9208152864      -13.3737689740
 C        -3.4603217767       -4.0645578113      -12.8495480548
 O        -3.7116480232       -4.9482948150      -12.1004703241
 C        -4.6810028579       -3.2395027385      -13.3735532878
 C        -5.6506761374       -2.9488152143      -12.0937855347
 O        -5.9523156481       -1.8397919322      -11.7086073505
 C        -6.0332164433       -4.1470400594      -11.2919719183
 C        -5.2605587272       -4.3653323942       -9.9655041751
 C        -5.9124450509       -4.1831804127       -8.5696652985
 O        -7.1073398473       -3.8379513602       -8.6105843678
 C        -5.0849782342       -4.3003056106       -7.2927141875
 C        -4.4598426770       -2.9993955541       -6.7044299413
 O        -3.2576171581       -2.8751833832       -6.5075634157
 C        -5.4108217832       -1.8838870622       -6.5227523648
 C        -4.9526567166       -0.7810569498       -5.5744613249
 C        -6.2065066432       -0.3169188043       -4.7478044704
 O        -7.0073883985       -1.1126099481       -4.3401898086
 C        -6.3243768306        1.2984377842       -4.3703060823
 C        -6.9407807050        1.9473955889       -5.7418337345
 O        -6.2517185998        2.7669110269       -6.3286137069
 C        -8.2679560167        1.3768038949       -6.2850664337
 C        -8.5209647492        1.6320363133       -7.7637684241
 C        -7.3963083458        1.1332350038       -8.5854435267
 O        -6.9561540254        0.0209544655       -8.5412009879
 C        -6.8679262931        1.9715429350       -9.8128526770
 C        -7.4471614397        1.3829172595      -11.1878358912
 O        -7.7562004579        0.1754462168      -11.2643388541
 C        -7.7076643467        2.2767732581      -12.2877822804
 C        -8.0104185559        1.6191147194      -13.6781804148
 C        -9.3604643673        0.9322547694      -13.6816406964
 O       -10.4007973963        1.5470870220      -13.4878595957
 C        -9.5242010255       -0.5887843180      -13.8354157661
 C        -9.7642018216       -1.4049486735      -12.3760537154
 O        -9.2980603266       -2.5295804384      -12.2478462188
 C       -10.9208721547       -0.7754502889      -11.5216521222
 C       -11.5246274163       -1.7849509589      -10.5323555259
 C       -10.6730838938       -1.9126398210       -9.1991527251
 O        -9.6284977004       -1.3440731184       -9.0713590047
 C       -11.1586526856       -2.9646919450       -8.0612021313
 C       -12.7194808143       -2.9409212957       -7.7707187035
 O       -13.4025186534       -3.4683964106       -8.6238582457
 C       -13.3427461171       -2.3790163198       -6.4629797305
 C       -14.1208193218       -1.0560831626       -6.6571143308
 C       -13.3037795692        0.1582926684       -7.1580757262
 O       -12.4003144016       -0.0490465707       -7.9288499931
 C       -13.5659663323        1.5832865780       -6.6411949273
 C       -13.1245156143        1.7847462520       -5.2061670922
 O       -13.4935172683        0.9378084509       -4.3993878858
 C       -12.4204271629        3.0979221680       -4.7110972707
 C       -12.7052311292        3.3140937207       -3.2139108645
 C       -11.4225682200        3.1946073672       -2.3576989513
 O       -10.4723648814        2.5876903509       -2.8818193005
 C       -11.2951681081        3.7916541165       -0.9226558603
 C       -11.9286993325        5.2098857437       -0.8448069365
 O       -12.3589170491        5.7423031136       -1.8533853751
 C       -11.9538286931        5.7121365344        0.5197960102
 C       -12.1750198375        2.9255104774        0.0396846768
 C        -9.8239967359        3.7067793546       -0.4797291893
 C       -12.8260654939        2.6283720890       -7.5522347500
 C       -15.0380553340        1.9432061954       -6.7788415874
 C       -10.8864565160       -4.3019847348       -8.7715345160
 C       -10.1640566620       -2.7280282443       -6.8114762928
 C       -10.8549746271       -0.7888195771      -14.7298823170
 C        -8.3743644271       -1.3872256676      -14.5830369320
 C        -6.9403033662        3.5276009934       -9.8656134098
 C        -5.3994732695        1.5899901127       -9.9630606745
 C        -7.4474327512        1.1990664624       -3.3026755408
 C        -5.0271958622        1.9366321467       -3.9386231462
 C        -6.0635866691       -5.0308898342       -6.2735966483
 C        -3.8271009864       -5.2459186561       -7.5293372754
 C        -4.2817766121       -1.9781799786      -14.0755773314
 C        -5.4704751758       -4.3192104281      -14.2853872205
 C         1.6629056085       -6.3035598881      -13.4277869603
 C         1.1720102521       -6.0899122286      -10.9174977085
 C         6.8989185666       -2.7067723043      -10.5011492764
 C         8.1641347154       -1.8798760825      -12.4776655142
 C        11.8900874329       -6.8222980503      -14.1165722656
 C        12.9343150864       -4.5342976150      -14.0229436704
 C         8.0751671961       -1.3403873483      -18.4312393517
 C        10.6239340444       -1.1831463610      -18.2214703075
 H        10.5473429780        0.6016087468      -16.2297480482
 H        11.2476449809       -0.8302323506      -15.4008035078
 H         9.9486448160        0.1520968284      -14.5820704273
 H        11.6864776755       -3.3358652814      -17.4053407855
 H        10.9508653151       -4.4594503421      -18.5931288797
 H        11.7841724801       -5.7270564150      -16.5204558986
 H        10.1048816677       -5.9863335812      -16.8612173187
 H        10.2187035155       -6.6004102892      -11.2466889182
 H         9.5091942236       -6.4435229288      -12.8232505580
 H         9.1366030510       -4.4025376880      -10.5247106551
 H         8.1214832076       -5.8440295436      -10.6931560166
 H         4.3283451446       -1.4919420419      -12.1265287421
 H         4.4062352678       -2.4871236577      -10.8781311267
 H         3.3651162655       -3.2612397421      -13.5847298044
 H         2.4435510302       -2.7168011065      -12.3555002746
 H        -1.1274331734       -3.9102852615      -11.3370557981
 H        -1.2371353682       -5.4490593943      -11.9943638146
 H        -1.8286490234       -4.4738316459      -14.3042013591
 H        -1.6527950473       -2.9198402192      -13.7535973843
 H        -6.1136714085       -5.0547979766      -11.9238326400
 H        -7.0699599826       -4.0150002655      -10.9955247182
 H        -4.3005389216       -3.8046173258      -10.0454758551
 H        -4.8428984340       -5.3784147075      -10.0827655502
 H        -6.4011557778       -2.2761474375       -6.1731906601
 H        -5.5216768000       -1.5173413756       -7.5184073705
 H        -4.3162571903        0.0670485770       -6.0176558685
 H        -4.1239985701       -1.1450593838       -4.9589007747
 H        -9.0953046868        1.8114047387       -5.6650104634
 H        -8.2934940996        0.2749086309       -6.1755918438
 H        -8.6509955458        2.6803090605       -8.0744160283
 H        -9.4370408909        1.1371399198       -8.0708959293
 H        -6.8815906610        3.0402675244      -12.3447294492
 H        -8.5555678278        2.9442110577      -11.9072467088
 H        -7.1505585003        0.9839245049      -13.9076121807
 H        -8.0720041715        2.2650933349      -14.6022393744
 H       -11.7181125455       -0.3985669360      -12.1604668811
 H       -10.4012282277        0.0831951993      -10.9861351605
 H       -11.4192297719       -2.7891246431      -11.0003814566
 H       -12.6129122892       -1.6446973756      -10.2223386540
 H       -12.6010547024       -2.2738192959       -5.6981310976
 H       -14.1656737848       -3.0478472494       -6.0473700491
 H       -14.3647434482       -0.8478272372       -5.6391535735
 H       -15.0421991715       -1.2030355699       -7.2264558307
 H       -12.8238394777        3.9158981523       -5.3312911079
 H       -11.3652158858        2.9255197524       -4.8369440432
 H       -13.3472440139        2.5796987195       -2.7541508556
 H       -13.2104969343        4.2906930527       -3.0629636187
 H       -12.7026176706        6.5423836225        0.7069708310
 H       -11.0208131912        6.2633969585        0.6248107028
 H       -11.8800504864        5.0131902880        1.3544602401
 H       -12.0812395784        1.9046857646       -0.2151083951
 H       -13.2241104165        3.2175635738        0.0882724415
 H       -11.8004041168        3.0236730801        1.0295598995
 H        -9.5046498366        2.6424652299       -0.2860361899
 H        -9.5578891921        4.2480465719        0.4369338296
 H        -9.3295125455        4.1153874272       -1.3772924130
 H       -13.2014045032        2.7623970715       -8.6436188021
 H       -11.7483572256        2.3556908710       -7.6441433809
 H       -12.8502006819        3.5047821123       -6.9809406598
 H       -15.8025729361        1.3042031707       -6.3570938508
 H       -15.3056988830        1.9794442393       -7.7619349018
 H       -15.1585432021        3.0010144222       -6.4600447642
 H       -11.6342360068       -4.4438162132       -9.5821366665
 H       -10.9377063100       -5.0690444229       -8.0291339393
 H        -9.9054411943       -4.4696625708       -9.2153312935
 H       -10.4698733946       -1.9435670478       -6.0614236849
 H        -9.1334344904       -2.4111693002       -7.0797339960
 H        -9.9320581062       -3.7509204542       -6.3690880581
 H       -10.7717751990       -0.1835055067      -15.5691841999
 H       -11.8018613237       -0.5348865380      -14.3231783889
 H       -10.8993900227       -1.8285731046      -15.0016490477
 H        -7.4381664622       -1.4684954329      -13.9147925792
 H        -7.9742859359       -1.0074496661      -15.5282519715
 H        -8.6500543445       -2.4333877884      -14.7947289360
 H        -6.2869165138        3.7973756372      -10.6760996912
 H        -6.6590768113        3.8711808239       -8.8504606322
 H        -7.9179617557        3.9462962932      -10.1395590482
 H        -5.2666497613        0.4817095317       -9.8025527392
 H        -4.7412625951        1.9542587669       -9.2069272273
 H        -4.9357037570        1.7443310481      -10.9636647061
 H        -8.0239091173        2.1705878823       -3.1602921777
 H        -7.1329363366        0.8947800213       -2.2334265267
 H        -8.3597844502        0.5318928856       -3.6000387338
 H        -4.6426721592        2.6944491914       -4.6644332229
 H        -4.1946008661        1.2145647186       -3.9768855959
 H        -4.9957826694        2.3893149217       -2.9426777654
 H        -5.8632758103       -6.1081177755       -6.1559589508
 H        -7.1210854616       -4.8128471235       -6.3235090433
 H        -5.6944941075       -4.6793788569       -5.2966581197
 H        -3.0261182678       -4.7394375116       -8.0688197893
 H        -4.1122994742       -6.1321078152       -8.0750707017
 H        -3.3415978639       -5.6200635532       -6.6285408670
 H        -3.4814658866       -2.0193580757      -14.7689534053
 H        -4.0585567792       -1.1174719508      -13.3720089875
 H        -5.1980945561       -1.7738558578      -14.6801717166
 H        -6.3424210043       -3.8653629755      -14.7409083853
 H        -5.8368961935       -5.1586858791      -13.7822818624
 H        -4.9762325228       -4.5216054596      -15.2185891703
 H         2.6387795041       -6.8369499085      -13.3018805328
 H         1.4899942791       -5.8630381094      -14.4691915622
 H         0.8842987548       -7.0580862957      -13.1385327798
 H         2.0516154779       -6.6772331335      -10.5897462622
 H         0.3864985843       -6.7754534719      -11.1758853510
 H         0.9494407994       -5.4595065438      -10.0275226686
 H         6.3936151902       -3.4833387388      -10.0106496246
 H         6.3311165615       -1.7911971617      -10.3553645689
 H         7.8285871730       -2.4349781838       -9.8817659335
 H         9.0268295463       -1.8780632125      -11.8776467647
 H         7.5468246935       -0.9893698611      -12.3925128895
 H         8.4315479097       -1.9874167137      -13.5633363423
 H        10.9614372909       -7.4014427172      -14.3174102750
 H        12.4194046416       -7.2492741901      -13.2576129700
 H        12.5862908703       -6.9668633496      -14.9411441051
 H        13.6494263679       -5.0279973483      -13.2772744060
 H        12.8658194019       -3.4458289465      -13.8800158484
 H        13.1674107423       -4.8249826248      -14.9654898971
 H         7.8602231312       -0.2459367356      -18.1959767708
 H         7.0945061796       -1.8954237331      -18.2661773810
 H         8.3351891271       -1.6153727738      -19.4700911013
 H        11.4143838477       -1.1485968961      -17.5584768466
 H        10.4461688565       -0.2628680810      -18.7179719157
 H        10.9152583487       -1.9722393991      -18.8731152425
 Na        7.4498932205       -3.3579368553      -15.3836849184
 Na       -7.4329221450       -1.8381773983       -9.9480824784
