232

 C        10.2594861482       -0.1330830043      -15.8619854949
 C         9.2249966534       -1.0599454176      -16.4170846383
 O         8.2123018315       -1.2700908845      -15.7604037827
 C         9.3909811210       -1.9151825454      -17.7231693559
 C         9.4069974146       -3.3701280511      -17.4052662665
 O         8.3331523405       -3.8808731903      -17.1084893832
 C        10.6681304329       -4.2259439055      -17.5811704041
 C        10.6835079419       -5.1609388807      -16.4428007030
 C        10.7412351361       -4.4289015458      -15.0354580251
 O        10.2817295857       -3.3018844254      -14.9048813865
 C        11.6957540120       -5.0789600581      -13.9789417254
 C        11.0010872390       -4.9432177813      -12.5579207776
 O        11.4500361307       -4.1608932417      -11.7234684135
 C         9.7507998799       -5.7651547374      -12.3056396140
 C         8.6298278371       -5.0550803619      -11.4278046915
 C         7.7119734867       -4.3627624063      -12.3477125323
 O         7.5853971208       -4.7368253372      -13.4967074859
 C         7.1598470402       -2.9906592477      -11.8662045519
 C         5.8383712508       -2.8253924055      -12.6433164048
 O         5.8011903492       -2.8979005369      -13.8556523374
 C         4.6130758621       -2.7057409314      -11.7699050251
 C         3.2747506308       -3.0689515342      -12.4893224862
 C         2.8560322789       -4.4640087384      -12.1296890733
 O         3.6588787315       -5.2851891257      -11.7288740321
 C         1.3743605177       -5.2172042157      -12.2538685316
 C         0.3734555539       -4.2772682416      -12.8854261472
 O         0.7424252269       -3.3528605286      -13.6170898982
 C        -1.0752080579       -4.4161753404      -12.4226105314
 C        -2.0983440309       -3.9211726384      -13.3656420375
 C        -3.4470828016       -4.2465165690      -12.7608489717
 O        -3.5838942327       -5.1958801979      -11.9596380939
 C        -4.6974688967       -3.4405478381      -13.3091123405
 C        -5.6323149261       -3.1088286861      -12.0941825009
 O        -6.2125605193       -2.0244543815      -11.9880278546
 C        -6.0583232449       -4.1671765283      -11.1701707481
 C        -5.1097339743       -4.2142208942       -9.8854507513
 C        -5.9174231314       -4.1695097275       -8.6460102066
 O        -6.9944491296       -3.5948824447       -8.5220843917
 C        -5.1471347015       -4.5169500372       -7.3181612350
 C        -4.6063214746       -2.9871713156       -6.7985175083
 O        -3.4373525177       -2.9227835797       -6.5966598420
 C        -5.6155232456       -1.8293659351       -6.6446120743
 C        -5.0319113555       -0.8733776723       -5.5956135586
 C        -6.2088764790       -0.3430378955       -4.6781164341
 O        -7.0016153796       -1.1024282153       -4.1816775865
 C        -6.3317475822        1.2898489609       -4.4297533897
 C        -6.8422613982        1.8912033039       -5.7452249712
 O        -6.2347913959        2.7523409158       -6.2987037600
 C        -8.2534983772        1.4318851414       -6.2198887182
 C        -8.5391326353        1.6148374678       -7.7614121652
 C        -7.3607140488        1.0532427145       -8.6744226608
 O        -7.0662584719       -0.1516792219       -8.4797808941
 C        -6.7659051027        1.8271705802       -9.7639642813
 C        -7.3963685995        1.4059501742      -11.1417319256
 O        -7.8590031489        0.3029942507      -11.3111515682
 C        -7.7434400255        2.3643902188      -12.3326668263
 C        -7.9664620510        1.4994016545      -13.5733676807
 C        -9.4426436596        0.9145847960      -13.6835442200
 O       -10.3858474674        1.6261801145      -13.4764987438
 C        -9.6458217415       -0.6727503797      -13.9035594934
 C        -9.8588328908       -1.3695527086      -12.3996712180
 O        -9.2089812351       -2.3275819461      -12.0146622190
 C       -10.9627704336       -0.7793862048      -11.5311776902
 C       -11.6549121848       -1.7907166068      -10.6120196149
 C       -10.7030824285       -1.8756943192       -9.2900491854
 O        -9.7077648366       -1.1385811501       -9.1157889453
 C       -11.0716916366       -2.8494817338       -8.1135932871
 C       -12.6561650270       -2.9168319299       -7.7453733094
 O       -13.4449226636       -3.6388377902       -8.2957381425
 C       -13.1259531996       -2.2263210321       -6.4826215393
 C       -14.0514776079       -1.0656290818       -6.7714098527
 C       -13.2841416504        0.1330560341       -7.2429276676
 O       -12.2187070615        0.0291913182       -7.8154707495
 C       -13.5518906196        1.5560328193       -6.6967665909
 C       -13.1054793690        1.5837479678       -5.1612967951
 O       -13.4867050383        0.7638119678       -4.4071434250
 C       -12.3250599160        2.8910405434       -4.7233218263
 C       -12.4768657819        3.2072415352       -3.2266424705
 C       -11.1364489256        3.1784200460       -2.4332788139
 O       -10.1822313732        2.6250355502       -2.9119811874
 C       -11.2942825443        3.7727781077       -0.8970270177
 C       -11.9347125168        5.1361595119       -0.7352874947
 O       -12.5115628343        5.7182390190       -1.6379161454
 C       -11.8249488057        5.9615816977        0.5600420501
 C       -12.0862182060        2.6278339479       -0.1429884923
 C        -9.8336193136        3.7809615447       -0.4016119086
 C       -12.8646326811        2.5576117876       -7.6556964906
 C       -15.0847532681        1.7700220633       -6.7229350873
 C       -10.6482931242       -4.2671534691       -8.7201839670
 C       -10.2232325474       -2.6128454402       -6.8427142554
 C       -10.8887554761       -0.9212107830      -14.7598525276
 C        -8.3806673037       -1.2679033966      -14.4840392894
 C        -7.0737405814        3.3944541805       -9.3931784199
 C        -5.2351420330        1.7193578480       -9.8273783918
 C        -7.4133320017        1.5681635018       -3.2526136634
 C        -4.9296174559        1.9074630049       -4.0083140397
 C        -6.0161344915       -5.0153085514       -6.2110820936
 C        -3.9135016914       -5.4903520122       -7.4726226940
 C        -4.2379923448       -2.0153770882      -13.8618858883
 C        -5.4977430781       -4.1341959289      -14.3856501860
 C         1.7033896636       -6.4093808776      -13.2302218039
 C         0.9454128501       -5.7720229048      -10.8207264738
 C         7.1319836651       -2.9825578541      -10.2619302385
 C         8.2622507575       -1.8625313041      -12.4230966026
 C        11.8012959890       -6.6261602515      -14.0840802341
 C        13.1633986219       -4.2803495328      -14.0134315106
 C         8.0706457270       -1.5392254490      -18.6264153593
 C        10.5919797149       -1.3366798232      -18.5460902195
 H        10.6253062550        0.6143193953      -16.6275046064
 H        11.0121648229       -0.7566805001      -15.5310348954
 H         9.8399913665        0.3937953514      -15.0407090425
 H        11.5747881202       -3.5661149006      -17.5099994863
 H        10.7031814926       -4.7090175531      -18.5591030170
 H        11.5634720137       -5.8511012973      -16.4725536102
 H         9.7686045845       -5.8406204814      -16.4487262772
 H        10.0495109464       -6.6750847661      -11.7365390803
 H         9.3620734140       -6.1273279032      -13.3053126079
 H         9.1256584136       -4.4094343615      -10.7236128574
 H         8.1979558428       -5.8903451375      -10.8939215736
 H         4.5160085617       -1.7538265713      -11.1224385495
 H         4.7339926934       -3.3642439788      -10.8939227590
 H         3.2269146822       -2.8408400322      -13.5626832371
 H         2.4359349292       -2.3855405471      -12.0708870073
 H        -1.1457066198       -3.9381998261      -11.4605109097
 H        -1.3328105594       -5.3938779210      -12.1144227399
 H        -2.0218944145       -4.4597738798      -14.3302280117
 H        -1.8480853520       -2.9555315754      -13.7205134392
 H        -6.0244347010       -5.1402087518      -11.6805613263
 H        -7.1193341264       -4.0154905726      -10.8262378229
 H        -4.3420585844       -3.4444868292       -9.8107926204
 H        -4.4882652158       -5.0992386198       -9.9923028006
 H        -6.6329529040       -2.1353945904       -6.3962816903
 H        -5.6266172731       -1.2038491293       -7.5992523632
 H        -4.5450919624       -0.0645570408       -6.0833440058
 H        -4.2352764490       -1.2392136893       -4.9386972586
 H        -8.8952081494        2.1028706535       -5.7343286218
 H        -8.5401791217        0.4546940530       -5.9255832363
 H        -8.7502040780        2.6349858032       -8.0101311987
 H        -9.4384005852        0.9945972072       -7.9902568505
 H        -7.2256392574        3.2568231127      -12.6346715788
 H        -8.7000732196        2.7753829560      -12.0538850131
 H        -7.1979663512        0.7421929349      -13.5928822111
 H        -7.7454011540        2.1013867588      -14.4330741563
 H       -11.7520026288       -0.3764779521      -12.1809628893
 H       -10.5132866246       -0.0076343211      -10.9451822170
 H       -11.9210649568       -2.6963068875      -11.1762165138
 H       -12.4683140629       -1.3925794352      -10.0796125131
 H       -12.2858653432       -1.9150349236       -5.8354345542
 H       -13.6822718456       -2.9067880458       -5.8995523799
 H       -14.6642822435       -0.8491498965       -5.8401488896
 H       -14.7827578440       -1.3502139704       -7.5416252537
 H       -12.6630911038        3.6567208737       -5.3782563190
 H       -11.2730993020        2.6070379183       -4.9029582548
 H       -13.0559778073        2.4464247336       -2.6713735785
 H       -12.9882006535        4.1331968075       -3.0944928860
 H       -12.3567379680        6.8599496625        0.5750451944
 H       -10.8159650672        6.2137644624        0.9381194729
 H       -12.1476778118        5.3152021152        1.3514217964
 H       -11.8205329893        1.6259288509       -0.6102849244
 H       -13.1364078121        2.8505704661       -0.3761710095
 H       -12.0518201376        2.6393330628        0.9714537626
 H        -9.5020313878        2.7556031435       -0.2928499661
 H        -9.8027798409        4.1517875638        0.6294517146
 H        -9.2275877939        4.3909346191       -1.0949759866
 H       -12.9110222363        2.0478707320       -8.5464347344
 H       -11.7979327671        2.7754277411       -7.4671495086
 H       -13.4270933399        3.5260956743       -7.7317691708
 H       -15.5041341151        1.3053649195       -5.7952603446
 H       -15.6876385185        1.1876526275       -7.5382414236
 H       -15.4650193634        2.7823082962       -6.8667625995
 H       -11.3330393253       -4.5935292015       -9.4961673237
 H       -10.4143419346       -5.0530924511       -7.9387890141
 H        -9.7080256125       -4.1632411681       -9.3259190060
 H       -10.1259092228       -1.5614210847       -6.7180196120
 H        -9.1894359633       -2.9315964045       -6.8641041540
 H       -10.6511624900       -3.1069270127       -6.0101972561
 H       -10.6204381314       -0.9008619564      -15.8622749509
 H       -11.6535962675       -0.1252424690      -14.5899132838
 H       -11.4065504147       -1.8406533191      -14.4382227869
 H        -7.5282497608       -1.2166765683      -13.8617992027
 H        -8.0848378207       -0.8780842287      -15.4424110985
 H        -8.5110681407       -2.3390268171      -14.6591290311
 H        -6.6162393975        4.0058553634      -10.1938383540
 H        -6.7919039499        3.4987368465       -8.3636949344
 H        -8.1680660261        3.6148501865       -9.5190187756
 H        -4.8791183278        0.8113655702      -10.2955376256
 H        -4.7379859204        1.6420871206       -8.8387444994
 H        -4.8080883588        2.4530769238      -10.4842629111
 H        -7.4204802114        2.5210315881       -2.8936775321
 H        -7.1458192731        0.9371038567       -2.4234653397
 H        -8.4405078501        1.3597865329       -3.4137275195
 H        -4.8181504025        2.9015061414       -4.4330561450
 H        -3.9703017423        1.4269877563       -4.3225036114
 H        -4.8138506961        1.9833922204       -2.9240924379
 H        -6.1025905621       -6.0784286595       -6.1686099352
 H        -6.9815425266       -4.6039509658       -6.5437573682
 H        -5.8618733202       -4.7200554635       -5.1510020651
 H        -3.2265007003       -5.1273795652       -8.2311275169
 H        -4.1636198643       -6.5497167374       -7.6802741230
 H        -3.2745469435       -5.4686181861       -6.6077777960
 H        -3.8580546060       -2.0996925011      -14.9237132032
 H        -3.4097186969       -1.6736942852      -13.2672488732
 H        -5.0513374201       -1.3117951265      -13.8895633873
 H        -6.1505342284       -3.3619946534      -14.8560662275
 H        -6.1314456177       -4.9728376750      -13.9948615691
 H        -4.9279666118       -4.3520780306      -15.2861696728
 H         2.0803182822       -7.2938177249      -12.7424448226
 H         2.4295021037       -5.9837200991      -13.8712846531
 H         0.8182049642       -6.6490962618      -13.7952251848
 H         1.7565394170       -6.3541959463      -10.3796764166
 H         0.0891653571       -6.4693970185      -11.0346156120
 H         0.7611510024       -5.0193549475      -10.0582907188
 H         6.5723691020       -3.8338133709       -9.8143449627
 H         6.8641474066       -2.0080600551       -9.8353334095
 H         8.0942364223       -3.0398624636       -9.8878838165
 H         9.0638937507       -1.8589635915      -11.6577688709
 H         7.7801216335       -0.8682492109      -12.5017418106
 H         8.6956747899       -2.1940577436      -13.2897749612
 H        10.8842580755       -7.2074845054      -13.7943220713
 H        12.5919731169       -6.9929043189      -13.3985768709
 H        12.2423627748       -6.8457488056      -15.0985033223
 H        13.7401942776       -4.7342095975      -13.2879238727
 H        12.9403444010       -3.2528826109      -13.6950274841
 H        13.6252083893       -4.4390962151      -15.0678293910
 H         7.8607754979       -0.5119511620      -18.7431285203
 H         7.1862996054       -1.9598318672      -18.2331248950
 H         8.2696182061       -2.0724180385      -19.5768470453
 H        11.5813830397       -1.6722524550      -18.1822886673
 H        10.4243685955       -0.2614213841      -18.4834523883
 H        10.4549344831       -1.7344863211      -19.5815745149
 Na        7.5090635907       -3.3604732735      -15.2423881363
 Na       -7.9305784121       -1.9935402069      -10.1548365608
