232

 C        10.2846232257       -0.0410256532      -16.3020229549
 C         9.2218676093       -1.0429418368      -16.7101919711
 O         8.3072855224       -1.2212316593      -15.8884960140
 C         9.2709001270       -1.9111486353      -17.9749364745
 C         9.3240533805       -3.4262832891      -17.5678389208
 O         8.2590910562       -3.8326927768      -17.1042150384
 C        10.6123881254       -4.3093779882      -17.7541486184
 C        10.7571219146       -5.2294762809      -16.4785505414
 C        10.8826382114       -4.4450701230      -15.0932829885
 O        10.2837266623       -3.3898748928      -14.9051861500
 C        11.9892302350       -5.0101711276      -13.9289626786
 C        11.1966489455       -5.0477386440      -12.5791828663
 O        11.3515939629       -4.1220917436      -11.7892223001
 C         9.9534673380       -5.9879525880      -12.2335756348
 C         8.8090489117       -5.2883572139      -11.4586326336
 C         7.9006670799       -4.3235241676      -12.3413845953
 O         7.6512657337       -4.8247392072      -13.4236785767
 C         7.2541378018       -2.9371736093      -11.7498243114
 C         5.7559691167       -2.7561871187      -12.3950041216
 O         5.6541309765       -2.3364220890      -13.5426120950
 C         4.5510892520       -2.7077814463      -11.5071858748
 C         3.2097987812       -3.0376196159      -12.1977711165
 C         3.0308589617       -4.6517905968      -12.2837027397
 O         4.0431922503       -5.3251005464      -12.0478505259
 C         1.4849444964       -5.1343852551      -12.3150657428
 C         0.3811398740       -4.2602362074      -12.9825106999
 O         0.5580655236       -3.3635077040      -13.8027743514
 C        -1.0023624651       -4.5588691845      -12.5594943095
 C        -2.1228001410       -3.9707175863      -13.4635926969
 C        -3.5051465807       -4.2374223896      -12.8812026370
 O        -3.7084301745       -5.2951254450      -12.3289362692
 C        -4.7283995982       -3.3707591328      -13.2745895363
 C        -5.8063183167       -3.2731528693      -12.1519401593
 O        -6.4347591696       -2.2663251383      -11.9509048163
 C        -6.1136399925       -4.4196588441      -11.1454492093
 C        -5.2197582862       -4.1862559484       -9.9461431217
 C        -5.9270386893       -3.9970247483       -8.5476192634
 O        -7.0154694243       -3.4423341655       -8.5244523182
 C        -5.2304014088       -4.4476444280       -7.1921990918
 C        -4.5198515090       -3.1271503469       -6.6199795328
 O        -3.3250583435       -2.9169206771       -6.6657043565
 C        -5.6250317659       -2.0364968561       -6.3020336639
 C        -5.1704210214       -0.7447041943       -5.6045343272
 C        -6.2600228222       -0.2945066552       -4.6383092080
 O        -7.0263199822       -1.0033788603       -4.0872332420
 C        -6.3486729761        1.3022618575       -4.4103990402
 C        -6.8368795936        1.7389435643       -5.7561363558
 O        -6.2480625963        2.5671010500       -6.5043623572
 C        -8.2052044763        1.2370363625       -6.1217841032
 C        -8.5491337078        1.3983794582       -7.5580438672
 C        -7.5395308227        0.9835598795       -8.5461213017
 O        -7.1953963932       -0.1536929961       -8.6943278226
 C        -6.9459805351        1.9873390255       -9.6147712966
 C        -7.5640913967        1.4409169717      -11.0108934261
 O        -7.8500656102        0.2792191564      -11.1232965986
 C        -7.6238529560        2.3733088195      -12.1884882005
 C        -8.0210008296        1.5642634712      -13.5541874071
 C        -9.4203802542        0.8789896403      -13.5846689636
 O       -10.4135676522        1.5539930770      -13.3169601866
 C        -9.6474192978       -0.6596003323      -13.8351179642
 C        -9.9699479843       -1.2281290589      -12.4098851211
 O        -9.3054471650       -2.1700757175      -12.0460417192
 C       -11.2259019744       -0.7886939666      -11.6334518579
 C       -11.7596966275       -1.7750419710      -10.5308815858
 C       -10.8302105697       -1.7650079042       -9.2117064717
 O        -9.9933875239       -0.9465073351       -9.0071226957
 C       -10.9778674953       -2.8698255056       -8.0781897569
 C       -12.4559080143       -2.9946530492       -7.6916421864
 O       -13.2767681244       -3.6067968786       -8.3985129293
 C       -12.9879587065       -2.3579347533       -6.3711151965
 C       -13.8949362440       -1.1289538709       -6.7789472858
 C       -13.0990865200        0.2109845921       -7.3152899193
 O       -12.0226437887       -0.0077458148       -7.8556043862
 C       -13.6800462324        1.5849620887       -6.8392841370
 C       -13.1785732818        1.6667437207       -5.2395278367
 O       -13.4561079369        0.7239324847       -4.4962185482
 C       -12.1388642250        2.6838215739       -4.6599501053
 C       -12.4113711559        3.0156035034       -3.2006390597
 C       -11.0736465755        3.2814069889       -2.4248265107
 O        -9.9819536191        3.0719043752       -2.9379104074
 C       -11.2465168135        3.6913208622       -0.9040481647
 C       -11.8322307886        5.0941736963       -0.8172054169
 O       -12.6543426412        5.5106744099       -1.5849109149
 C       -11.6437459745        5.7586173328        0.5118908154
 C       -12.0564287517        2.6060209366       -0.1523593873
 C        -9.7865044884        3.7288069316       -0.2578362036
 C       -13.0418737004        2.7337174182       -7.6420574688
 C       -15.1868070121        1.5818477067       -6.7265359707
 C       -10.6532971415       -4.2628577923       -8.6133542374
 C        -9.9615116494       -2.5548601360       -6.9732880916
 C       -10.8948211714       -0.8487614401      -14.6630964391
 C        -8.4309717656       -1.4067213124      -14.4072374035
 C        -7.0277438416        3.4816234337       -9.5144808853
 C        -5.4736189633        1.6192520648       -9.8588331907
 C        -7.1678486996        1.7258590268       -3.2005231860
 C        -4.8769396932        1.8246363067       -4.1729255714
 C        -6.2962869083       -4.9155158115       -6.1615716967
 C        -4.1123297606       -5.5235689035       -7.3765267839
 C        -4.3503729639       -1.9444689409      -13.6689892518
 C        -5.4771957319       -4.1547374309      -14.4911476851
 C         1.4066701942       -6.4314462278      -13.1758798673
 C         1.1331895006       -5.3898160053      -10.7767072938
 C         7.1208972712       -2.9013679881      -10.2697180917
 C         8.1072445894       -1.7420458403      -12.2650533924
 C        12.3647644411       -6.5003139990      -14.3346114828
 C        13.2014227963       -4.1409322237      -13.8003540814
 C         8.0168246671       -1.5917128833      -18.7836600553
 C        10.5274010558       -1.5689913172      -18.9091575468
 H        10.5248545483        0.6705083235      -17.0497155119
 H        11.1617197668       -0.7297339011      -16.0100086955
 H         9.9544233458        0.5376365380      -15.3977507045
 H        11.4852525715       -3.7724957991      -18.0742169774
 H        10.3418909119       -4.9635724137      -18.5890802397
 H        11.5150669114       -5.9631531948      -16.5460830865
 H         9.8513198725       -5.7621064162      -16.4418518241
 H        10.3286747485       -6.8194196195      -11.6687776813
 H         9.4766350433       -6.3553931223      -13.1032853737
 H         9.2306620732       -4.7607991963      -10.5888682743
 H         8.1963475208       -6.1587118136      -11.1139109590
 H         4.4828979098       -1.7392779448      -11.0939899539
 H         4.6985852210       -3.2119180404      -10.5681609325
 H         3.3090842593       -2.5644682320      -13.2043747882
 H         2.4343449800       -2.4632660024      -11.7858571128
 H        -1.0874775495       -4.3324758931      -11.4660355894
 H        -1.2097872309       -5.6703063469      -12.4831546043
 H        -2.1032862195       -4.4180637845      -14.4417563118
 H        -1.8383769301       -2.9177584791      -13.7472679014
 H        -5.9527319416       -5.4598141321      -11.4150582929
 H        -7.1210747656       -4.2305482391      -10.8267975800
 H        -4.6378618800       -3.2649063655      -10.0790753151
 H        -4.4215079876       -4.9213448857      -10.0135577846
 H        -6.3411244200       -2.4104389690       -5.5500588797
 H        -6.1912128137       -1.7263135283       -7.1258153767
 H        -4.9000519993        0.1106115915       -6.3188935021
 H        -4.2916217600       -0.9295815139       -4.9138022486
 H        -9.0211378108        1.8672332436       -5.5813337760
 H        -8.3087159379        0.1582472447       -5.7626709928
 H        -8.7894725111        2.4796689140       -7.7515957784
 H        -9.3832395550        0.7409006467       -7.7867561712
 H        -6.6459122923        2.8330594497      -12.3611516198
 H        -8.2886813257        3.2520559902      -12.1257999156
 H        -7.2394523743        0.8240291059      -13.8755885715
 H        -7.9129458198        2.4145898437      -14.2694181746
 H       -12.0595256211       -0.4305536663      -12.2268198965
 H       -10.9174044108       -0.0240130130      -10.8698315127
 H       -11.7420703055       -2.8196245077      -10.8037793724
 H       -12.8254505817       -1.4823901082      -10.2193200054
 H       -12.2749022416       -2.1901982755       -5.5283207681
 H       -13.6391905915       -3.2109253903       -5.9837147614
 H       -14.5887318338       -0.8781793782       -5.9954104512
 H       -14.5661359008       -1.5174097137       -7.5913103113
 H       -12.1270741405        3.5493686364       -5.3674225233
 H       -11.2337296991        2.0819505474       -4.7436320113
 H       -12.8633760201        2.1524477424       -2.6911882006
 H       -13.0999190148        3.9113061452       -3.0755373357
 H       -12.0252978496        6.8108229407        0.4526295798
 H       -10.6576854940        5.9175054628        0.8584175511
 H       -12.0292928219        5.1721941625        1.3675026274
 H       -11.3891843065        1.8163803183        0.0514390780
 H       -12.9258562267        2.2213069154       -0.6829802688
 H       -12.4217064780        3.0518189044        0.7628257609
 H        -9.1734086648        3.0999304851       -0.8539184280
 H        -9.7562186454        3.3325730095        0.7451267282
 H        -9.4316925997        4.6964288382       -0.3730957190
 H       -13.3466669605        2.7033345486       -8.7296040273
 H       -12.0245367065        2.5468743721       -7.5353833361
 H       -13.2506658096        3.7307837752       -7.3108370559
 H       -15.6127068678        0.8387807554       -6.1368300340
 H       -15.5684021882        1.4676808380       -7.6924570687
 H       -15.6292299489        2.5206428039       -6.4687736059
 H       -11.2306733214       -4.5086640033       -9.4961155383
 H       -10.8689774353       -4.9729379323       -7.8525037398
 H        -9.6618194353       -4.3331823535       -8.9763009869
 H       -10.0301847835       -1.5322219326       -6.5522714796
 H        -9.0543338255       -2.4282207839       -7.5166255028
 H        -9.9082284569       -3.2704742466       -6.1315154247
 H       -10.6644100256       -0.8797679048      -15.7201905583
 H       -11.6182735187       -0.0197628657      -14.4608503497
 H       -11.3817984167       -1.8040280390      -14.3853401587
 H        -7.6695571320       -1.5818086515      -13.6466191128
 H        -7.9412684551       -0.8419361248      -15.2826462365
 H        -8.7002752423       -2.3863471742      -14.7220571145
 H        -6.6509927879        3.9200264495      -10.4040441630
 H        -6.4460760705        3.7999460110       -8.6261319781
 H        -8.0213182050        3.6828688517       -9.4621052677
 H        -5.3278337933        0.6025391079      -10.1580817438
 H        -4.8315125433        1.6962621662       -9.0157867591
 H        -4.9986385924        2.1269044097      -10.6837271503
 H        -7.1362984342        2.8832908030       -3.0305969387
 H        -6.7417133608        1.2285474959       -2.3135867835
 H        -8.1851127765        1.3529298294       -3.2472712564
 H        -4.6805224138        2.8067851347       -3.8170468777
 H        -4.2095147192        1.7054140700       -4.9336895379
 H        -4.4431226867        1.1314333854       -3.4695405010
 H        -6.8459186913       -5.8107186569       -6.5920971961
 H        -7.0381645117       -4.1841816878       -5.8815687221
 H        -5.8501496357       -5.2857041421       -5.3007138653
 H        -3.2697650086       -5.3136705307       -8.0418753968
 H        -4.6265664648       -6.3755691401       -7.7588240090
 H        -3.6527567741       -5.8129672712       -6.4033858596
 H        -3.5437756870       -1.9165928232      -14.3490985637
 H        -4.0436415174       -1.3980612744      -12.7726293013
 H        -5.2432869758       -1.4058875611      -14.0293959051
 H        -6.5229945121       -3.9743494693      -14.7891905594
 H        -5.3944129455       -5.1933624257      -14.1250134737
 H        -4.9006633004       -4.0950345166      -15.4760213960
 H         1.8662642736       -7.2321484428      -12.6456322915
 H         1.9272594514       -6.2841534019      -14.1072435975
 H         0.3825921424       -6.6361633179      -13.3170717781
 H         1.9664624861       -5.5768482926      -10.1218365376
 H         0.4439730972       -6.1552133233      -10.6221777768
 H         0.7804398966       -4.4272528410      -10.4223241882
 H         6.7453322928       -3.8836072457       -9.9658910434
 H         6.5609572250       -2.0549585388       -9.9228146922
 H         8.1311288398       -2.7754686638       -9.7678457684
 H         9.1467505297       -1.9198149412      -11.9784887259
 H         7.7308370496       -0.8926485879      -11.7553020006
 H         8.0789869141       -1.6995560094      -13.4240703771
 H        11.5314473454       -6.9764150199      -14.6892396901
 H        12.4247151649       -7.1402470680      -13.4684524478
 H        13.2035298447       -6.4755912935      -14.9589716756
 H        13.8845680042       -4.6080705230      -13.0017319041
 H        12.7870744117       -3.2371487884      -13.4364491939
 H        13.7045124789       -4.1880369112      -14.7278823868
 H         8.1927725610       -0.5819109391      -19.3195742913
 H         7.3175031461       -1.2999159645      -17.9787694794
 H         7.5986909234       -2.2165811724      -19.5181694838
 H        11.3813615678       -1.4650566815      -18.1992486652
 H        10.2939573520       -0.5784123737      -19.3327781869
 H        10.6977218419       -2.3263222166      -19.6489430611
 Na        7.4235038623       -3.2155308501      -14.9985917590
 Na       -7.9388613510       -1.8596927578      -10.1823424234
