232

 C        10.3914915185        0.0189367811      -16.6186147985
 C         9.3505493234       -1.0596569819      -16.7696072339
 O         8.3442228612       -1.1404888147      -16.0041333678
 C         9.2783502588       -1.9046776126      -18.0061066920
 C         9.2015700814       -3.4540486737      -17.6030054241
 O         8.1616815184       -3.9047831049      -17.1942503381
 C        10.4362165715       -4.2719841284      -17.6103958976
 C        10.8901076245       -5.1888212591      -16.4407582476
 C        11.0269159614       -4.4706257874      -15.1517109313
 O        10.3234797952       -3.4999190535      -14.8392359848
 C        11.9436941234       -5.0464487477      -14.0576975547
 C        11.0767095696       -5.0220009527      -12.7302772458
 O        11.4042739584       -4.0870334890      -11.9868776144
 C        10.0004141141       -6.0492270554      -12.2592790981
 C         8.8690378879       -5.3198666888      -11.4709592278
 C         7.8856089169       -4.4176019415      -12.2865971289
 O         7.6936439456       -4.6559926881      -13.4284207788
 C         7.2204565531       -3.0254102578      -11.6627410133
 C         5.7919073278       -2.6484596228      -12.3182294256
 O         5.7160178345       -2.2729779089      -13.4697938822
 C         4.5688102963       -2.6110882306      -11.4249769182
 C         3.2851036997       -3.1210774456      -12.0908145383
 C         3.0872170418       -4.5963290692      -12.3000399490
 O         4.0507279905       -5.3379021933      -12.3054348044
 C         1.5919560383       -5.0953299344      -12.3150949150
 C         0.4562309242       -4.2796803382      -13.0166402405
 O         0.7184830187       -3.3925235387      -13.8233107071
 C        -1.0590804150       -4.6447375180      -12.5649074853
 C        -2.1363460055       -4.0188241187      -13.4574747233
 C        -3.5365007269       -4.3087885935      -12.9615574179
 O        -3.8068400567       -5.4155895102      -12.4228365823
 C        -4.7869101198       -3.3963783003      -13.2650914953
 C        -5.8866433697       -3.3866303251      -12.0327884474
 O        -6.4835547648       -2.3194471352      -11.9620147840
 C        -6.0709376214       -4.5121670033      -11.0540867625
 C        -5.1269924110       -4.2430540158       -9.7992593589
 C        -5.9599740748       -4.0424627751       -8.5029755902
 O        -7.0417795037       -3.4259410719       -8.5488668045
 C        -5.3216145255       -4.4684660255       -7.2345042232
 C        -4.6062972580       -3.0746828740       -6.6491118076
 O        -3.4354689941       -2.9845116063       -6.6778022887
 C        -5.6201788073       -2.0789548887       -5.9797547881
 C        -5.1041269571       -0.7459306892       -5.5035990583
 C        -6.1601669286       -0.2508784153       -4.6098877136
 O        -7.0304339156       -0.9323822702       -4.0207383910
 C        -6.2461378684        1.3301018974       -4.3565823180
 C        -6.9051185292        1.8448133251       -5.7791603882
 O        -6.2383781421        2.3868084671       -6.6363588781
 C        -8.2927274802        1.1772974607       -6.1120922103
 C        -8.7243794936        1.5149807680       -7.6158263041
 C        -7.5603742063        0.9965789838       -8.6047541879
 O        -7.1537102642       -0.1147993256       -8.5290713402
 C        -6.9539185337        1.9401471087       -9.7094409036
 C        -7.5833056743        1.4292367173      -11.0952533348
 O        -7.9978276728        0.2794913340      -11.2426614119
 C        -7.6309838118        2.4496178257      -12.2437200105
 C        -7.9688016816        1.5975531584      -13.4871385459
 C        -9.4309947271        0.9497603750      -13.4469359525
 O       -10.4242422721        1.5950999515      -13.1847824623
 C        -9.6776848492       -0.6529913157      -13.8117255499
 C       -10.1484879703       -1.3905412242      -12.3279577311
 O        -9.4389760148       -2.2826024478      -11.9004819675
 C       -11.2808802363       -0.7970995085      -11.5429283004
 C       -11.6709329371       -1.8314686018      -10.4619806632
 C       -10.7605969767       -1.8279532781       -9.2757786218
 O       -10.0067288809       -0.8420178590       -9.1593327525
 C       -10.8610417991       -2.8927961618       -8.1075927611
 C       -12.4600063372       -2.9771014559       -7.6559029053
 O       -13.1760324532       -3.5118203940       -8.4609322225
 C       -13.0896230707       -2.3257518365       -6.4094061719
 C       -13.8795137891       -1.1009979963       -6.7353876285
 C       -13.0618338973        0.1763205175       -7.1348987878
 O       -12.0954008459        0.1648305430       -7.8628783920
 C       -13.5944067289        1.5415637300       -6.7041639593
 C       -13.0895398661        1.5791413325       -5.2391328686
 O       -13.5593861484        0.7495069127       -4.5240705622
 C       -12.0478273627        2.6551124960       -4.6737235300
 C       -12.3191304825        2.9206181177       -3.1661872760
 C       -10.9815675087        3.2224298759       -2.4222352744
 O        -9.9481283541        3.3505451271       -3.0330740870
 C       -11.1252334591        3.5473346205       -0.9028811367
 C       -11.9960560164        5.0169966075       -0.7279919761
 O       -12.6989609980        5.3876799787       -1.6369252494
 C       -11.6304034773        5.7894072985        0.5436716692
 C       -12.1069328390        2.6304476700       -0.1126407000
 C        -9.6708797020        3.6109197506       -0.3491648587
 C       -13.1411458403        2.6930452494       -7.6430064967
 C       -15.1701482429        1.5467134220       -6.8218153554
 C       -10.5413298009       -4.3056853277       -8.7279587898
 C        -9.8321920223       -2.5505832304       -7.0274687663
 C       -10.9872739017       -0.7251464993      -14.7588286192
 C        -8.4840802438       -1.3311795709      -14.3400363505
 C        -7.2135506013        3.4934058729       -9.4733266295
 C        -5.4799624874        1.4528171318       -9.8409819695
 C        -7.0226389553        1.6814579077       -3.0746191471
 C        -4.7356279217        1.8534140405       -4.2255597873
 C        -6.4408243446       -4.9148297788       -6.3185911426
 C        -4.2192426072       -5.4407907647       -7.3989853952
 C        -4.6246192445       -1.9072845986      -13.7757838253
 C        -5.3467881226       -3.9897830232      -14.5657060143
 C         1.4099832148       -6.5404232377      -13.1489474688
 C         1.2206840473       -5.1718104719      -10.8393576226
 C         7.1727714286       -2.9892079285      -10.1318700158
 C         8.0990783291       -1.7672595687      -12.2729251590
 C        12.5433961541       -6.5333066764      -14.2281477373
 C        13.1712537889       -3.9481871651      -13.7055305008
 C         7.9075879286       -1.6645426331      -18.8641310844
 C        10.5591156027       -1.6216731964      -18.9968850015
 H        10.3674590749        0.5578047800      -17.6237996638
 H        11.3243311422       -0.4782263129      -16.4522468363
 H        10.1938231349        0.7979666129      -15.8658171686
 H        11.2790480640       -3.5205637565      -17.7159756159
 H        10.5230667639       -4.8518948786      -18.5445162421
 H        11.8124357222       -5.6692226284      -16.7183449402
 H        10.2082934932       -6.0213222523      -16.2448809278
 H        10.5747110759       -6.7002374476      -11.6286195837
 H         9.5368587512       -6.6012651814      -13.0966696071
 H         9.3743762164       -4.6659805759      -10.7591092862
 H         8.2237343438       -6.0437146576      -10.9094729491
 H         4.3611563001       -1.7101547192      -10.7622000198
 H         4.7792467624       -3.2643619579      -10.6456048167
 H         3.0668384165       -2.5828272424      -12.9567618581
 H         2.5097934631       -2.7733942877      -11.4406312689
 H        -1.2082804120       -4.4314847881      -11.5095632616
 H        -1.3133870846       -5.7399157410      -12.5659306572
 H        -2.0175711702       -4.2341400901      -14.5441502734
 H        -1.9656714722       -2.8926824875      -13.4437742988
 H        -5.7416875525       -5.4458653000      -11.5151649664
 H        -7.1129619140       -4.4994605669      -10.6698459556
 H        -4.3623172682       -3.4564347047       -9.9724257544
 H        -4.4982571088       -5.1525828032       -9.6985970998
 H        -6.0745557781       -2.4856688351       -5.0776339408
 H        -6.4805389143       -1.8283841693       -6.5915508685
 H        -5.1546009456       -0.0040092774       -6.2946514690
 H        -4.0187080996       -0.8108175367       -5.0630423732
 H        -9.1218644430        1.2616452961       -5.3778938175
 H        -7.9081495177        0.1304282779       -6.0978548360
 H        -8.9597937142        2.6072545399       -7.7070369129
 H        -9.5155166025        0.8928367801       -7.9511302530
 H        -6.6582373436        3.0078754464      -12.3491546903
 H        -8.4389795726        3.2836286329      -12.2214162387
 H        -7.2000958933        0.8008627700      -13.7206963742
 H        -7.9154223246        2.2901430130      -14.2960348445
 H       -12.1937109642       -0.8162774729      -12.1974135206
 H       -11.1869273603        0.1417606926      -11.0168584213
 H       -11.7538520099       -2.8944527633      -10.8145511211
 H       -12.6800095381       -1.4957263681      -10.0851934076
 H       -12.3483093086       -2.0342616454       -5.6122217470
 H       -13.6435874873       -3.1174585884       -5.9663881605
 H       -14.3859696810       -0.8343338258       -5.8412320336
 H       -14.6874064808       -1.2938326718       -7.4452963200
 H       -12.0967844237        3.5352920131       -5.3418740295
 H       -11.0823589215        2.1641071447       -4.7735687636
 H       -12.8568768167        2.0795144474       -2.7053623904
 H       -12.8753993588        3.8408629232       -2.9983144267
 H       -12.1463077763        6.7265377468        0.4417346883
 H       -10.5898989408        6.1436290725        0.6686042465
 H       -11.8101188187        5.2845426995        1.5321481981
 H       -11.6522213918        1.7238399944        0.2124856451
 H       -12.9577225058        2.4203333943       -0.6627885051
 H       -12.3990984996        3.2025381713        0.7505013764
 H        -9.1410030812        2.9293611709       -0.9799975326
 H        -9.5907381559        3.2579861501        0.7057604103
 H        -9.2627706452        4.6020277259       -0.5497527985
 H       -13.9235691336        2.8720894585       -8.3589392958
 H       -12.1525231637        2.5794840948       -8.0869920449
 H       -13.1420700477        3.6929161379       -7.0442373799
 H       -15.6888065551        0.7347655594       -6.4225938818
 H       -15.4615943321        1.6967705464       -7.8980005833
 H       -15.6248299831        2.3513555807       -6.3619848780
 H       -11.1129432987       -4.5030139677       -9.6026165582
 H       -10.8051691011       -5.1214176079       -8.0218899048
 H        -9.5466655301       -4.3149813345       -9.0946465458
 H       -10.0801984977       -1.8906773916       -6.1303618241
 H        -9.0172271192       -1.9616741292       -7.5290118389
 H        -9.4703662712       -3.4955805434       -6.5582863379
 H       -10.9298034647       -0.3164109214      -15.7822858965
 H       -11.6837983031       -0.1558117941      -14.1965864704
 H       -11.3353693841       -1.7046801723      -14.8491786774
 H        -7.6395796700       -1.3758270561      -13.6600637187
 H        -8.1001731757       -0.8778448066      -15.3257052417
 H        -8.7309382498       -2.4151796114      -14.5094334424
 H        -6.7163947958        4.1887450026      -10.2086684911
 H        -6.7755839115        3.6662549315       -8.4829771141
 H        -8.2962964357        3.5550841458       -9.4942592789
 H        -5.2616443052        0.4240467290       -9.7199071361
 H        -4.8163070113        1.9809032398       -9.0970598894
 H        -5.0119164211        1.6644046573      -10.7964992022
 H        -7.4204571312        2.7289797854       -3.0598814652
 H        -6.4358958673        1.4706415680       -2.0373751415
 H        -7.9341450646        0.9041519088       -3.0211226695
 H        -4.4971706097        2.7391925532       -3.6438196110
 H        -4.2475988492        2.0268419990       -5.1814468085
 H        -4.0424993302        1.0866946240       -3.8555068907
 H        -7.0117661859       -5.8042065507       -6.6798303054
 H        -7.1430243459       -4.1063812861       -6.0486345956
 H        -5.9855589998       -5.2299132160       -5.4123071454
 H        -3.2791991951       -5.1318353646       -7.8319522697
 H        -4.6548217074       -6.1910291781       -8.0240860820
 H        -3.9789738156       -5.9310397064       -6.4295038386
 H        -3.5991071830       -1.8904590186      -14.2369650989
 H        -4.5639687538       -1.2559914647      -12.9436068660
 H        -5.4326255859       -1.4950818967      -14.3955728129
 H        -6.3814699250       -3.7296517853      -14.6971378430
 H        -5.3602686055       -5.0645140820      -14.3913087099
 H        -4.8121874730       -3.8391694130      -15.5018979046
 H         2.2666918945       -7.2425693380      -12.9804083903
 H         1.3251882020       -6.3109955686      -14.2278230923
 H         0.4595557788       -6.9506702457      -12.7395237994
 H         1.9170032373       -5.7443732025      -10.2384086604
 H         0.2662248852       -5.6743208990      -10.6752257561
 H         1.2038480267       -4.1650425312      -10.4308384906
 H         6.7402911000       -3.9447099115       -9.6488743674
 H         6.6256549082       -2.0879070956       -9.8586610224
 H         8.1469559008       -2.8819574516       -9.7354484205
 H         9.1891141706       -2.0546070330      -12.3320585280
 H         7.9801730241       -1.0035090347      -11.5356007875
 H         7.7877337960       -1.5040276247      -13.2367030590
 H        11.8150716206       -7.3016906504      -14.3106560130
 H        12.8494187726       -6.8107472925      -13.2488460777
 H        13.2758590776       -6.5129637622      -15.0031649835
 H        13.8042149597       -4.3270233102      -12.9814677994
 H        12.5784071948       -3.1516844357      -13.3622909050
 H        13.7566854229       -3.7983632254      -14.6825626973
 H         7.9185746392       -0.7474619176      -19.5145020034
 H         7.1052565745       -1.5221187101      -18.0817729659
 H         7.6591980523       -2.4484615468      -19.6487147273
 H        11.4311090975       -1.4291151136      -18.3781855734
 H        10.2776387071       -0.7265234518      -19.4445634234
 H        10.6720669252       -2.3577116406      -19.7270789230
 Na        7.3095198685       -3.0667003213      -14.8774369297
 Na       -7.8602366124       -1.8275453107      -10.0239980724
