232

 C        10.2468722692        0.2404781818      -17.6891328726
 C         9.4273440008       -0.9056085788      -17.2228752073
 O         8.8273928128       -0.9399871706      -16.1829179585
 C         9.1777406128       -2.1754568723      -18.2550714115
 C         9.3338829967       -3.4994506878      -17.5124916357
 O         8.4851358387       -3.9603647439      -16.8179490324
 C        10.6043491655       -4.3686026148      -17.7023912569
 C        10.6443845759       -5.2843824768      -16.4419534527
 C        10.7089462196       -4.4321952374      -15.1583862801
 O        10.0630376440       -3.4704849570      -14.8440174175
 C        11.8299625765       -4.7937897899      -14.0838410816
 C        11.1041174856       -4.5938802734      -12.6922884898
 O        11.3298734861       -3.8009931575      -11.8617222568
 C         9.9977926774       -5.8042796781      -12.4366327754
 C         8.6273481970       -5.5073625266      -11.7592894464
 C         8.0301338830       -4.2410183837      -12.3818411069
 O         7.8311032631       -4.1999081444      -13.5841533850
 C         7.4584364831       -3.1142497661      -11.5016052442
 C         6.0662345847       -2.9131828568      -12.2173983279
 O         5.8741423172       -2.4835986933      -13.3662763267
 C         4.7802068378       -3.1294508776      -11.2749130328
 C         3.3837582197       -3.0420600912      -11.9548291321
 C         3.0023997154       -4.4094051542      -12.6128657089
 O         3.7416054810       -4.9524562970      -13.3803926675
 C         1.6548470094       -5.1351721390      -12.1832473000
 C         0.5198795089       -4.3236507414      -12.9629152215
 O         0.8127134876       -3.4114431111      -13.6663845427
 C        -0.8896021911       -4.7984705611      -12.6186197175
 C        -1.9391338679       -3.7633449481      -13.1392533398
 C        -3.3575701457       -4.2771289477      -13.0179233991
 O        -3.4919166946       -5.4667078698      -12.7365426012
 C        -4.6936707561       -3.3739875683      -13.3912864119
 C        -5.6067543180       -3.3331981573      -12.0686238834
 O        -6.3031241097       -2.3448725383      -11.9065283992
 C        -5.8177381773       -4.5260321242      -11.1691190491
 C        -4.9799647007       -4.6168561768       -9.7826386691
 C        -5.9461741089       -4.2511302607       -8.5483759529
 O        -6.9383830772       -3.4890575629       -8.7209210283
 C        -5.5127983246       -4.6413765883       -7.1992201658
 C        -4.8634908242       -3.3984536184       -6.5074687909
 O        -3.8561098732       -2.9336758497       -7.0632638725
 C        -5.6102689515       -2.5940819591       -5.3887209183
 C        -5.0985270357       -1.0779106452       -5.1512081205
 C        -6.0598213636       -0.1464678263       -4.2950422574
 O        -6.8312767948       -0.5762472389       -3.4484495840
 C        -6.0553738357        1.4460400590       -4.4880466817
 C        -6.7527396810        1.7132913789       -5.9576048369
 O        -6.0668377571        2.0215308963       -6.8600092497
 C        -8.2974907046        1.5698431510       -6.0268071673
 C        -8.8352839743        1.5327371857       -7.4798768540
 C        -7.6408663070        1.0459998316       -8.3960601888
 O        -7.2563140555       -0.0616172939       -8.3239986596
 C        -7.1600088982        1.8999313872       -9.6507040348
 C        -7.7113550194        1.3892227056      -10.9711562167
 O        -8.0422652158        0.1961969122      -11.1212478245
 C        -7.6908977505        2.3343533474      -12.2240919609
 C        -8.3620445253        1.7135706433      -13.4480689086
 C        -9.5776532643        0.9282080357      -13.0135760320
 O       -10.4851565495        1.4468761355      -12.4088760437
 C        -9.8990198759       -0.5253703793      -13.5985329858
 C       -10.3847541912       -1.3799506558      -12.3505118231
 O        -9.6228709731       -2.2453230038      -11.9307136925
 C       -11.7117983719       -0.9479518985      -11.6820164187
 C       -12.0149204239       -1.6380275257      -10.3710017524
 C       -10.7618740750       -1.7390569978       -9.4439142163
 O        -9.8013155679       -0.9138252385       -9.4165063963
 C       -10.7649684606       -2.8363795111       -8.2956362645
 C       -12.2501962542       -2.8416901217       -7.7281200510
 O       -13.0785004635       -3.4670948158       -8.3259969229
 C       -12.7563490649       -2.2301065702       -6.3837390691
 C       -13.7988259129       -1.1623591822       -6.7125237595
 C       -13.1973656942        0.1869146627       -7.0920798363
 O       -12.2271371429        0.0902662426       -7.8544203437
 C       -13.7246401254        1.5586889133       -6.6132276387
 C       -13.4204980670        1.6178035051       -5.0081963463
 O       -13.9158754551        0.9721483561       -4.1472448615
 C       -12.1875504050        2.4752673059       -4.6384902481
 C       -12.0962845998        2.4377425640       -3.1366013142
 C       -10.9123899156        3.2817674018       -2.4981296400
 O        -9.9716985018        3.7713250825       -3.0935043672
 C       -11.0171304288        3.4760346414       -0.9758096491
 C       -11.7954002377        4.8371216533       -0.7780583423
 O       -12.8056581813        4.9990907488       -1.4434065787
 C       -11.4523897016        5.8735204091        0.3195776470
 C       -11.7235318654        2.2880650675       -0.2918019417
 C        -9.6005452586        3.6330026255       -0.3651608073
 C       -13.0486084445        2.6743697882       -7.4964962756
 C       -15.2613620929        1.6157088893       -6.7110297041
 C       -10.4028573373       -4.1820148695       -8.9830746948
 C        -9.6707547318       -2.5347759110       -7.3010152084
 C       -11.0803637682       -0.5008042118      -14.7414857372
 C        -8.6866787343       -1.2106123936      -14.3276199714
 C        -7.4373686789        3.4869013340       -9.4170514233
 C        -5.6633422914        1.5370099830       -9.8238890260
 C        -6.9610431291        2.0831824992       -3.3973640512
 C        -4.6729243838        2.0423668165       -4.4796887983
 C        -6.7896434731       -5.2463916871       -6.4282533138
 C        -4.3837336390       -5.7450412352       -7.1705970499
 C        -4.4776803655       -1.9722767064      -13.9295638044
 C        -5.6108281879       -4.1148327343      -14.3497336123
 C         1.6027414080       -6.5350661133      -12.7629249636
 C         1.3867820475       -5.0124446672      -10.6709608624
 C         7.2643277548       -3.3706498542       -9.9083231836
 C         8.2401375245       -1.8365386419      -11.6704091152
 C        12.3710720941       -6.2067064182      -13.9909395831
 C        13.0129104451       -3.6864599185      -14.0154852171
 C         7.6998049492       -2.0615400771      -18.5046035200
 C        10.0535463780       -2.0072248541      -19.4024252418
 H         9.6841274816        0.7574383877      -18.5728823914
 H        11.2597061009       -0.0526236309      -17.8545962952
 H        10.2012739629        1.0212150790      -16.9120636229
 H        11.5556505193       -3.8301682178      -17.7858358442
 H        10.5356147249       -4.9141368723      -18.6291106212
 H        11.4619186049       -5.9338335582      -16.4629572552
 H         9.7822252517       -5.8913201405      -16.4534344390
 H        10.3360761914       -6.6187814853      -11.8701316040
 H         9.7650155682       -6.1403733109      -13.4376042405
 H         8.7926117629       -5.3479434278      -10.6859402989
 H         7.9774274026       -6.4003094587      -11.9282648893
 H         4.8514565964       -2.3226433384      -10.5134252499
 H         4.7698702797       -3.9744442021      -10.6878877226
 H         3.3408933066       -2.2531714656      -12.6365684237
 H         2.6254687542       -2.8626611276      -11.1791104576
 H        -1.0549813113       -5.0059810958      -11.5462090990
 H        -1.2125591318       -5.7256877025      -13.1991958334
 H        -1.7603898826       -3.6102801199      -14.2227735121
 H        -1.8321551182       -2.7854644139      -12.6176278208
 H        -5.6013686934       -5.3689295967      -11.7859121199
 H        -6.8342078466       -4.4348120398      -10.8132550340
 H        -4.1043308693       -3.9678645480       -9.7311529859
 H        -4.6658953240       -5.6569755123       -9.6665496495
 H        -5.5714733550       -3.1193871719       -4.4656732350
 H        -6.6784649640       -2.5459806216       -5.4939040069
 H        -4.9826311841       -0.7303733034       -6.1759891469
 H        -4.1589161752       -1.0665247088       -4.4609793312
 H        -8.6476351064        2.4237298184       -5.3524782693
 H        -8.5666447525        0.5840816525       -5.4780202199
 H        -9.1419679109        2.5414508833       -7.8484335681
 H        -9.6071993933        0.7836595906       -7.5916586941
 H        -6.6367719592        2.5733455783      -12.3627536937
 H        -8.2474066139        3.2787465946      -11.9557501732
 H        -7.6144050562        1.0463770645      -13.9858381307
 H        -8.7827332052        2.4859780686      -14.0944117324
 H       -12.6567354844       -1.1025327085      -12.2626322394
 H       -11.5767904836        0.1131688536      -11.5070425700
 H       -12.5501879933       -2.6189362542      -10.6055040338
 H       -12.7726429823       -1.1196559554       -9.7500217698
 H       -11.9703988670       -1.8700682966       -5.6175426314
 H       -13.3763763955       -2.9905787105       -5.8846706233
 H       -14.4724454251       -1.1400411285       -5.8675655359
 H       -14.4979065038       -1.5338073283       -7.4882475921
 H       -12.1410342817        3.5032137886       -5.0409772807
 H       -11.3567965861        1.9267296690       -5.1298058127
 H       -11.9330344789        1.3887924759       -2.7717876340
 H       -13.0190147167        2.8557706234       -2.7057174896
 H       -12.2412097032        6.5352908836        0.5982520351
 H       -10.5803130610        6.5520162019        0.1463704284
 H       -11.2229546171        5.3225070944        1.2536013719
 H       -11.2505602516        1.2828512318       -0.4180338098
 H       -12.7407493714        2.2503942468       -0.6429857049
 H       -11.7025669906        2.5372246490        0.7816348520
 H        -9.4366545497        2.7511822283        0.1502271437
 H        -9.5546195907        4.5027116872        0.2409496915
 H        -8.8544018900        3.7323653336       -1.1131402987
 H       -12.9141352660        2.3568859650       -8.4713055551
 H       -12.0217776671        2.9182204369       -7.1829126245
 H       -13.6688062840        3.5765949117       -7.5799154615
 H       -15.6943610370        1.1291859739       -5.8890711435
 H       -15.5346285960        1.0587206905       -7.5950622125
 H       -15.7520451516        2.5253051301       -6.7199144799
 H       -11.2466813037       -4.5281938776       -9.5028044884
 H       -10.2713544982       -4.9887798455       -8.2429739352
 H        -9.5606077773       -4.0796802023       -9.6300713423
 H       -10.0736152491       -2.5974723638       -6.3000998227
 H        -9.2553838407       -1.5615240281       -7.5478508699
 H        -8.8146703164       -3.1787110229       -7.3441183023
 H       -10.7145722410       -0.2831025144      -15.8062656385
 H       -11.7340084339        0.3100699697      -14.4505128084
 H       -11.5601575673       -1.4751698832      -14.7816950819
 H        -7.7657352164       -1.4233155786      -13.7862388666
 H        -8.4624178622       -0.5193744073      -15.1335774475
 H        -9.0798257400       -2.1108169763      -14.8835096043
 H        -6.8963759094        4.0859123865      -10.0809710657
 H        -7.0542656361        3.7466000412       -8.5246751715
 H        -8.5144234551        3.6680229820       -9.5133083983
 H        -5.4894715960        0.6363215428      -10.3444613594
 H        -5.0615644199        1.4063120473       -8.9372793263
 H        -5.1180068257        2.2885016888      -10.3334524420
 H        -7.0229099360        3.2058588408       -3.6215426357
 H        -6.4732223081        1.9583015277       -2.3722176540
 H        -8.0359065339        1.6085682984       -3.4412565942
 H        -4.5646692996        3.0583391568       -4.6344007401
 H        -4.0280555044        1.5312346473       -5.1695286219
 H        -4.1958980457        1.8847536950       -3.5566326421
 H        -7.1374502721       -6.1703294003       -6.8136664346
 H        -7.6445620821       -4.5939309160       -6.4542699192
 H        -6.4334015592       -5.3086664595       -5.3749521250
 H        -3.5269741986       -5.5321887406       -7.8085354615
 H        -4.8127035820       -6.6784840539       -7.5744976555
 H        -4.1000482442       -6.0081174120       -6.1397152166
 H        -4.2010556241       -2.0799469661      -15.0012391919
 H        -3.6758994353       -1.4761091751      -13.4634163205
 H        -5.4344832863       -1.4742535899      -13.8367103897
 H        -6.4563092886       -3.4098170409      -14.4068162556
 H        -6.1210800478       -5.0540067802      -13.9939429757
 H        -5.2059014871       -4.3721405584      -15.3290363186
 H         2.1693240845       -6.4299536676      -13.6387289820
 H         0.6175101341       -6.8062510858      -12.9715144168
 H         1.9996099587       -7.3218597360      -12.1678671322
 H         2.2787843034       -5.2769164676      -10.1551802379
 H         0.6137007761       -5.6898639519      -10.3201375428
 H         0.9990826734       -4.0740631553      -10.3613788444
 H         6.8199236917       -4.3945525337       -9.7690518393
 H         6.5312246978       -2.6974162667       -9.4644635895
 H         8.2093952550       -3.4210910526       -9.4951942919
 H         9.2371409593       -1.9058892182      -11.1201858881
 H         7.6387259765       -0.9570042684      -11.3049371774
 H         8.3570381231       -1.7658682657      -12.7097907194
 H        11.6110709904       -6.9958174853      -14.1234760575
 H        12.7808052437       -6.2069256768      -13.0139525543
 H        13.1199241776       -6.3484232045      -14.7459524353
 H        13.5038939591       -3.8906257060      -13.1430963527
 H        12.4381975344       -2.7785470804      -14.1430212164
 H        13.6679247921       -3.8814580307      -14.9148672627
 H         7.4627316449       -1.1043390331      -18.8447826091
 H         7.1399961833       -2.5545189396      -17.7299410234
 H         7.4745393851       -2.6618340582      -19.4550073156
 H        11.0568445634       -1.8248234612      -18.9849098491
 H         9.6670336334       -1.1905603893      -20.0171875508
 H         9.8736427454       -2.8940876419      -20.0525601127
 Na        7.4189946997       -2.6400873046      -15.2326964716
 Na       -7.5533910912       -1.7283270545      -10.1276128238
