232

 C        10.0701214929        0.1971443087      -18.2352497304
 C         9.4275265182       -1.0263830542      -17.5678717092
 O         9.0279517504       -1.0009304302      -16.4272291133
 C         8.7782047308       -2.1486493385      -18.4465102963
 C         8.9435497726       -3.5486519431      -17.5389611106
 O         8.0526179999       -4.0629724195      -16.9029569726
 C        10.4091540171       -4.1194952952      -17.6392050636
 C        10.8840043701       -5.0834237397      -16.4648026131
 C        10.9155581705       -4.2540899202      -15.1339205079
 O        10.3053355751       -3.2190152845      -15.0368717775
 C        11.8951584474       -4.6956603483      -13.8551821836
 C        11.0645084043       -4.8118691191      -12.6414992618
 O        10.9040754382       -3.8817800637      -11.8940697205
 C        10.1459887154       -6.1081842923      -12.3043088451
 C         8.9292605528       -5.4817362378      -11.5891493237
 C         8.2558109793       -4.3053322957      -12.3803051137
 O         8.2643025464       -4.2097660007      -13.5609530371
 C         7.4246249194       -3.1302834375      -11.4794127684
 C         5.9799831838       -2.9603702984      -12.1722499605
 O         5.9004569785       -2.3249089167      -13.2239235514
 C         4.6888291010       -3.1940883927      -11.3781365382
 C         3.3885999649       -2.9387228973      -12.2805668599
 C         2.9144939978       -4.2620810806      -12.9003909311
 O         3.6008117500       -4.6745359674      -13.7846755761
 C         1.7041984738       -5.0458332562      -12.2247673118
 C         0.5073310855       -4.2988355769      -12.8836183260
 O         0.7142553624       -3.2397517258      -13.4052049215
 C        -0.9073186257       -4.8441750846      -12.6911279745
 C        -1.9882079248       -3.7312448191      -12.6780119513
 C        -3.2944015635       -4.3512885692      -12.9681032961
 O        -3.3005868823       -5.6055178253      -12.9760614147
 C        -4.5752698559       -3.5367419201      -13.3484632089
 C        -5.3415868993       -3.2359021673      -11.9694475797
 O        -5.3704737359       -2.1131513238      -11.4856705447
 C        -5.9309269084       -4.4498364966      -11.1204896615
 C        -5.0880715613       -4.6422329651       -9.7857134331
 C        -5.9379888454       -4.3101211140       -8.5453146728
 O        -7.0102485689       -3.6756437476       -8.7392153555
 C        -5.5529941773       -4.5972410974       -7.1162597607
 C        -5.1022319638       -3.2344453034       -6.5006735656
 O        -4.1060625637       -2.6727034366       -6.9482719501
 C        -5.8983843566       -2.6624171088       -5.3522838227
 C        -5.3460681574       -1.1736073036       -5.3024026268
 C        -6.0775483836       -0.3440702964       -4.2281822157
 O        -6.6604351110       -0.7493826419       -3.2470546541
 C        -6.0622515522        1.2734916929       -4.5211052155
 C        -6.5804441908        1.6234460241       -5.8724277554
 O        -5.8960781650        1.8732306449       -6.8224014529
 C        -8.1437956793        1.7113333958       -6.1099698046
 C        -8.6197997671        1.4190160926       -7.5132832386
 C        -7.6146997272        0.9391079845       -8.6274417339
 O        -7.4170339849       -0.2558598584       -8.7153481179
 C        -7.0195969606        1.9205297108       -9.6886996484
 C        -7.5746193500        1.5976838899      -11.0405678336
 O        -7.7302017876        0.4128262301      -11.3755950620
 C        -8.0771485627        2.5956562158      -12.0133896131
 C        -8.4679771130        1.8606454742      -13.3510924255
 C        -9.7025144301        1.0510224153      -13.0536965527
 O       -10.5919390611        1.5441969461      -12.3737554978
 C       -10.0067886392       -0.4320776535      -13.5156280948
 C       -10.5093999351       -1.3629587815      -12.3511576068
 O        -9.6547193548       -2.1195448168      -11.9315218051
 C       -11.8844967030       -1.1553569518      -11.7538049436
 C       -12.1624634377       -1.8176065595      -10.4338422273
 C       -11.0020502279       -1.8235642512       -9.4765953144
 O       -10.1909183574       -0.8913491253       -9.5476031335
 C       -10.9289769495       -2.8245319795       -8.3679958238
 C       -12.3428117404       -2.9043265124       -7.5439966386
 O       -13.2334081586       -3.5700388561       -7.9718733493
 C       -12.5771986390       -2.2460872506       -6.1530183840
 C       -13.5984479741       -1.1331586362       -6.2803717263
 C       -12.9250526085        0.1483855302       -6.9635456443
 O       -12.0496693033        0.0178236810       -7.7925434967
 C       -13.7758196160        1.5679751268       -6.6155170601
 C       -13.5878735739        1.6603581550       -5.0075698346
 O       -14.2989430802        0.9938930771       -4.3270100814
 C       -12.3537114181        2.4780696390       -4.4944052516
 C       -12.1457454468        2.2133569593       -2.9767106275
 C       -10.8250267629        3.0730880792       -2.4478127798
 O       -10.0275343894        3.4822275714       -3.2756066183
 C       -10.8035725064        3.4728561295       -0.9682563233
 C       -11.7437423333        4.6763849373       -0.7529176805
 O       -12.8715972675        4.5205350008       -1.2146293661
 C       -11.3276565903        5.8607330031        0.0843708984
 C       -11.2999065460        2.4422865713        0.0069404805
 C        -9.3476057601        3.8073540703       -0.5696601768
 C       -13.2696849143        2.7642231352       -7.5030148869
 C       -15.3062228511        1.3878100006       -6.8340383102
 C       -10.4647659954       -4.0865044765       -9.0378471202
 C        -9.8697878707       -2.4571296429       -7.3844012355
 C       -11.3170797519       -0.2645565552      -14.4375731598
 C        -8.8359722666       -1.1494341116      -14.1913257734
 C        -7.2918192871        3.4846707859       -9.2887650668
 C        -5.4848032608        1.6411300955       -9.9297151163
 C        -6.7238982829        2.1609318364       -3.4951167314
 C        -4.5320365047        1.7195049450       -4.5745555413
 C        -6.8267654199       -5.1058746040       -6.3040959846
 C        -4.3172913221       -5.6690116043       -6.8763610801
 C        -4.0513333037       -2.2437832727      -14.0204677207
 C        -5.5864270186       -4.2900046771      -14.3198362495
 C         1.7031001442       -6.5570644983      -12.5880054100
 C         1.6683977333       -4.8629512632      -10.7502538475
 C         7.2739532922       -3.4999310063      -10.0368185482
 C         8.2094487274       -1.8612777266      -11.7142187288
 C        12.5790241195       -6.0563882113      -13.9955941504
 C        12.8941052646       -3.4243717182      -13.8064032732
 C         7.3166651195       -1.9987298558      -18.8307395533
 C         9.5972793696       -2.3620403331      -19.7617400417
 H         9.3642881358        0.2883194569      -19.1000418505
 H        10.9863282726       -0.1044270815      -18.6306558652
 H        10.1962872179        1.0750028298      -17.6586903698
 H        11.1807885470       -3.3187435763      -17.6592981940
 H        10.4944732429       -4.6493636139      -18.6089651743
 H        11.9412334606       -5.4397866959      -16.6905533914
 H        10.2545584708       -6.0262455443      -16.4335165977
 H        10.6344437612       -6.7215263666      -11.5290358144
 H         9.7436058782       -6.7867419408      -13.0990579003
 H         9.2835349501       -4.9681785640      -10.6862367373
 H         8.1768136045       -6.2131755123      -11.2550686729
 H         4.6751727120       -2.3959278888      -10.5860230659
 H         4.6606426436       -4.1660784454      -10.8848768673
 H         3.6493651585       -2.1676711794      -13.0955550127
 H         2.5827434357       -2.5927990982      -11.5722785177
 H        -1.0508067233       -5.3835208599      -11.7870623512
 H        -1.0786650112       -5.4646855192      -13.5921341060
 H        -1.6786721840       -3.0910453439      -13.4369066193
 H        -1.9753554060       -3.2469989397      -11.6888762964
 H        -5.5587904861       -5.2759248962      -11.7208314710
 H        -7.0252690705       -4.3531739648      -10.9935004415
 H        -4.3434677442       -3.8341920714       -9.7895231192
 H        -4.6240999558       -5.6252793995       -9.7866969283
 H        -5.9012054052       -3.1382633696       -4.3189089145
 H        -6.9641050492       -2.6769194792       -5.5092962055
 H        -5.6721297507       -0.7863310720       -6.2133528044
 H        -4.2346386965       -1.2129418106       -5.1884127485
 H        -8.4705786773        2.6776350985       -5.7752911008
 H        -8.5782231743        1.0338752258       -5.4242587938
 H        -9.1630239370        2.3316381290       -7.9197026819
 H        -9.3566690548        0.6569441012       -7.4322074751
 H        -7.4230235123        3.3748861463      -12.1929313372
 H        -8.9717813519        2.9227936153      -11.4994731199
 H        -7.6394724626        1.1828889442      -13.6730122840
 H        -8.5654951072        2.7320388311      -13.9471509134
 H       -12.5689122365       -1.5462209774      -12.5087531245
 H       -12.1296619033       -0.1306397099      -11.5536174104
 H       -12.4685715065       -2.8376064229      -10.5380961898
 H       -13.0728945335       -1.3669048050      -10.0041377826
 H       -11.6176336827       -1.7699161037       -5.7459407857
 H       -13.0105913161       -2.9838688167       -5.4984047581
 H       -13.9628534554       -0.9257678501       -5.2845503606
 H       -14.5662024666       -1.4456248733       -6.7709988653
 H       -12.3496954325        3.5410431828       -4.7959903510
 H       -11.4886124211        2.1030789477       -4.9973769930
 H       -11.9978213358        1.1627450748       -2.8683058896
 H       -12.9583733988        2.6394170960       -2.3765632245
 H       -12.0233526721        6.6461289928       -0.0377287799
 H       -10.3739453718        6.2790826907       -0.1602124362
 H       -11.3925204737        5.7023348628        1.1868758609
 H       -10.6420714648        1.5808836902       -0.0546779061
 H       -12.3193635097        2.1924604601       -0.1496687995
 H       -11.1529844067        2.8501034050        1.0220668899
 H        -8.6586806952        3.0984158963       -1.0536705837
 H        -9.2407855292        3.9906436673        0.5522318255
 H        -9.1601738560        4.7992113330       -1.0504963018
 H       -13.8092386140        2.8626383940       -8.4145179893
 H       -12.2763308308        2.5978446834       -7.8590219888
 H       -13.3131250015        3.7913648999       -7.0153115391
 H       -15.7315965880        0.3673620751       -6.5753546046
 H       -15.7119569040        1.5499513664       -7.9262491273
 H       -15.7713450935        2.1210644743       -6.1451693127
 H       -11.2316978624       -4.3206632284       -9.8102250461
 H       -10.3649821070       -4.9609536646       -8.2947520213
 H        -9.4291554820       -3.9964345660       -9.4176700968
 H        -9.6187891448       -3.3358531142       -6.7217479779
 H       -10.1913172967       -1.5952415649       -6.8398712578
 H        -9.0379128650       -2.0463068984       -7.9218039851
 H       -11.2451619259        0.4838122599      -15.2732861436
 H       -12.0265744109        0.1012851140      -13.7206418155
 H       -11.6092500181       -1.2205607776      -14.7679584430
 H        -8.0473939573       -1.2954465129      -13.5338546117
 H        -8.5248690794       -0.5917136618      -15.1151550575
 H        -9.2714435357       -2.0689485506      -14.5337467528
 H        -6.8662625071        4.2659009215      -10.0071822142
 H        -6.9511026875        3.6663113963       -8.2886118810
 H        -8.4143622220        3.5593184026       -9.3151817410
 H        -5.2157933037        0.5914469682      -10.0226726073
 H        -4.8289515924        1.8864619264       -9.0434206442
 H        -4.9793715111        2.2562266260      -10.7018801967
 H        -6.3342425316        3.0941656311       -3.6617559770
 H        -6.5359110705        1.9261252048       -2.5419868727
 H        -7.7279818203        2.1480838437       -3.6838890066
 H        -4.2489582322        2.6655344565       -5.1019581833
 H        -3.9383739715        0.9269336034       -5.0774890556
 H        -4.0403036939        1.9023957353       -3.5733021911
 H        -7.2352240842       -5.9078821214       -6.9645279506
 H        -7.6242905304       -4.3613619218       -6.4288751863
 H        -6.7097179276       -5.4216109180       -5.2896715501
 H        -3.3060155530       -5.2985441066       -7.0886458445
 H        -4.5041268998       -6.6338065699       -7.2698400932
 H        -4.4205651438       -5.8516916352       -5.7785384706
 H        -3.2684609614       -2.4139322801      -14.8033532119
 H        -3.6099945110       -1.6670846198      -13.2613070566
 H        -4.9598510525       -1.8231352331      -14.4777487760
 H        -6.6817478409       -4.1951002352      -14.2427417278
 H        -5.4387599143       -5.3738479370      -14.1247255757
 H        -5.1823828457       -4.0989993942      -15.3219716897
 H         1.0189082170       -6.7741220255      -13.4523285212
 H         1.4992510757       -7.1569888067      -11.6748496715
 H         2.6923921223       -6.9392801956      -12.9763912803
 H         2.6855595662       -5.0432867813      -10.3403126570
 H         0.9093499748       -5.3966808198      -10.1858911926
 H         1.3577583452       -3.8155836786      -10.5354378177
 H         6.9834669434       -4.6217453255      -10.0182875213
 H         6.5240192985       -2.9615337438       -9.4899268998
 H         8.2168556613       -3.3409318590       -9.5941054349
 H         9.2993300478       -2.0890957797      -11.4415987743
 H         7.8125588152       -1.0757149222      -11.1079125546
 H         8.0734896895       -1.5357569302      -12.6986471490
 H        11.8459126224       -6.8296943960      -14.2507780209
 H        13.3578209319       -6.1831585788      -13.2295476775
 H        13.2161989773       -5.9554315622      -14.9006843718
 H        13.6884429489       -3.7621353344      -13.2698770555
 H        12.2928157586       -2.6944275997      -13.3014014384
 H        12.9865286674       -3.0308480105      -14.8896620015
 H         7.2696439748       -1.4640539446      -19.7553153896
 H         6.9346853683       -1.4648749736      -17.9927760075
 H         6.6896843106       -2.8813806085      -18.8199592539
 H        10.6551436412       -2.5208506674      -19.4374694382
 H         9.6268348278       -1.4255443258      -20.3040938704
 H         9.2337907286       -3.2252432837      -20.2985091701
 Na        7.8985090278       -2.4516441902      -14.9313655424
 Na       -7.9036587206       -1.7786497235      -10.2838427446
