232

 C         9.9505949080        0.0227000479      -18.3582428260
 C         9.1221674006       -1.0885118363      -17.6744000159
 O         9.0795417496       -0.9783169431      -16.4757991164
 C         8.6739850077       -2.3087431007      -18.5183226066
 C         8.8632122780       -3.5412821836      -17.5947275632
 O         7.9630281158       -3.9264283926      -16.9265233452
 C        10.3398306287       -4.0124652162      -17.6181382959
 C        10.8267111734       -4.8988438820      -16.4514459861
 C        11.0678291887       -4.1541895049      -15.1727990778
 O        10.4243354003       -3.1485303957      -15.0206957392
 C        11.9311930371       -4.7060635569      -13.9797615972
 C        10.9191890606       -4.7300214144      -12.6428336367
 O        10.8893623987       -3.7856434982      -11.9233259121
 C        10.1112207809       -5.9530976257      -12.3368747333
 C         8.9003972377       -5.5095840129      -11.5009030705
 C         8.0998849501       -4.3509966236      -12.2318646632
 O         8.3606130590       -4.2893688813      -13.4486100325
 C         7.4007666953       -3.2255251925      -11.4797103495
 C         6.0790518643       -2.8711721947      -12.2463639472
 O         6.1635377513       -2.4477052402      -13.4034135332
 C         4.7040006146       -3.1529606900      -11.4567665093
 C         3.4125825950       -2.8225611729      -12.3440874335
 C         2.9925398454       -4.2908783707      -12.8917796954
 O         3.5525904817       -4.7375241017      -13.8750141188
 C         1.7949667483       -5.0088267778      -12.2490429345
 C         0.5558184603       -4.2304737446      -12.8168058662
 O         0.6634545495       -3.1421255750      -13.3172304463
 C        -0.7855989022       -4.9151066602      -12.6245064696
 C        -1.9085938545       -3.8600954728      -12.5494651285
 C        -3.2699819361       -4.5024719786      -12.9787175384
 O        -3.4458325275       -5.6719488956      -13.0632196550
 C        -4.5528722403       -3.5612232236      -13.2317550690
 C        -5.2468374544       -3.2987664009      -11.8846413132
 O        -5.1472232431       -2.2089067210      -11.3572836834
 C        -5.9556658433       -4.4363834564      -11.1790665435
 C        -5.0928975252       -4.5004149000       -9.8275930960
 C        -6.0433575181       -4.2324063149       -8.5957553067
 O        -7.1343139044       -3.6757141630       -8.7443249348
 C        -5.6038128133       -4.6156885663       -7.0384580014
 C        -5.1516270186       -3.2545274283       -6.4577656216
 O        -4.1382792978       -2.7253144682       -6.9485022375
 C        -5.9897743858       -2.5798391855       -5.4155280586
 C        -5.4694525151       -1.0590459629       -5.3392196490
 C        -6.1301004106       -0.2024641721       -4.2432752943
 O        -6.6517180969       -0.7199297777       -3.2713363150
 C        -5.9860038025        1.2883040009       -4.4908818252
 C        -6.6128590625        1.5358702981       -5.9473909798
 O        -5.8748312453        1.7743349423       -6.8708878549
 C        -8.1159332103        1.6320751625       -6.0649430236
 C        -8.5640962126        1.3516769476       -7.4938599591
 C        -7.4774589592        0.9716603916       -8.5896977475
 O        -7.2755533166       -0.1649252640       -8.7620093307
 C        -6.9685455862        1.9226857845       -9.6574966098
 C        -7.6673455706        1.4622270909      -11.0114105423
 O        -7.5475820289        0.3044467137      -11.3860957333
 C        -8.2026766856        2.6519902461      -12.0060097079
 C        -8.5987864290        1.9769875665      -13.3611339304
 C        -9.8606186584        1.1747042790      -12.9711886817
 O       -10.7440712122        1.6612186385      -12.3458384726
 C       -10.0238305467       -0.3894493899      -13.5452041316
 C       -10.4284091678       -1.2613717521      -12.2667342305
 O        -9.7477589650       -2.1857699210      -11.8265682076
 C       -11.8921826872       -1.1486492165      -11.7688876940
 C       -12.2695154583       -1.9015386728      -10.4704471717
 C       -11.1065594280       -1.7684934697       -9.3784724191
 O       -10.2295056143       -0.9062957284       -9.5921307146
 C       -10.8964620317       -2.9203145345       -8.2053678763
 C       -12.3617839601       -3.0525595625       -7.4599491750
 O       -13.3165360021       -3.5474014782       -7.9889484486
 C       -12.5647104754       -2.3124960537       -6.0695777274
 C       -13.4755068321       -1.0693621643       -6.1914402991
 C       -13.0760847092        0.2042092412       -6.9563244160
 O       -12.0578751445        0.1663686946       -7.6514439926
 C       -13.7958996288        1.4976972096       -6.5922124158
 C       -13.5598053102        1.6126198131       -5.0556473902
 O       -14.3560845291        1.1086621329       -4.3094816985
 C       -12.4150518458        2.4355222409       -4.4458048867
 C       -12.1605927142        2.2672722737       -2.9405845633
 C       -10.9262436948        3.1072243900       -2.4879014011
 O       -10.0469278420        3.2133787545       -3.3161837478
 C       -10.6910608337        3.4656321995       -0.9546062419
 C       -11.8025279621        4.6058078453       -0.7037195814
 O       -12.9407220096        4.5056757136       -1.1578761714
 C       -11.3421777143        5.8950055564       -0.0617310900
 C       -11.1427891210        2.2400785971        0.0242835894
 C        -9.2185408021        3.9394053245       -0.7054255260
 C       -13.2532091742        2.6217054421       -7.3881530299
 C       -15.2985083368        1.3429753347       -6.8428006669
 C       -10.4752894487       -4.2336844360       -8.9892995033
 C        -9.7028331674       -2.3813922133       -7.3231437303
 C       -11.2104552819       -0.1765194548      -14.5810873764
 C        -8.9177658695       -1.0681971164      -14.3471306359
 C        -7.1612128314        3.4487519099       -9.4765798252
 C        -5.4947275788        1.6179647770       -9.9383433302
 C        -6.6385786107        2.0093865129       -3.2770674702
 C        -4.4327791268        1.7349981444       -4.5200276572
 C        -6.8800227239       -5.1965695869       -6.4055658624
 C        -4.3542176891       -5.5317370856       -6.9180143930
 C        -4.1966659254       -2.2112377513      -13.9871568333
 C        -5.5437740932       -4.2823676280      -14.2198207852
 C         1.7592795188       -6.4825279886      -12.6891167553
 C         1.7786424641       -4.7703546486      -10.7102603606
 C         7.1957057512       -3.4712092921       -9.9628209490
 C         8.3707637469       -2.0211844951      -11.7313257368
 C        12.7795363863       -6.0016236089      -14.0596160370
 C        12.9188624145       -3.5125297342      -13.5781904733
 C         7.1740434021       -1.9325010683      -18.8238297345
 C         9.5251920116       -2.5017701430      -19.9280034642
 H         9.4612203144        0.5423125331      -19.2183049508
 H        10.8319485386       -0.4714234617      -18.7144534926
 H        10.2677551078        0.6851737557      -17.5631193038
 H        11.0362100243       -3.1738175804      -17.7013645637
 H        10.4619508670       -4.5925159976      -18.5204384722
 H        11.7379783409       -5.3801134755      -16.7717328953
 H        10.1143488612       -5.7059442266      -16.3068259206
 H        10.6303740431       -6.7783534029      -11.9073540325
 H         9.6613906917       -6.2699231048      -13.2740697052
 H         9.1709096029       -5.0965482443      -10.5092092227
 H         8.1773648851       -6.3497841997      -11.3476772716
 H         4.6517537987       -2.5726266946      -10.5224367464
 H         4.6906627314       -4.1698576556      -11.2635754215
 H         3.6795960142       -2.1908904356      -13.1713911311
 H         2.5896050939       -2.3972620325      -11.6763533572
 H        -0.8703415550       -5.4466298368      -11.6756433002
 H        -0.8320098677       -5.5678838855      -13.5471052961
 H        -1.5184316031       -3.0472823615      -13.1452442238
 H        -1.9522273119       -3.6019374389      -11.5130516558
 H        -5.9329946585       -5.3503611060      -11.6989057258
 H        -6.9230345281       -3.9982386889      -10.9706685358
 H        -4.3226198811       -3.7549590042       -9.8305585656
 H        -4.7094478713       -5.5049431777       -9.7273466009
 H        -5.9162076493       -2.9895101541       -4.4348471547
 H        -7.0611270234       -2.7444634346       -5.5877690426
 H        -5.5358213215       -0.5913411929       -6.3399275974
 H        -4.3835127340       -1.2238579401       -4.9911720666
 H        -8.4212862463        2.6535461953       -5.7570024409
 H        -8.4669865131        0.9621636521       -5.1982606851
 H        -9.0644818501        2.2874878433       -7.8258660026
 H        -9.3524416125        0.5831929243       -7.5326428257
 H        -7.3401262188        3.2433942496      -12.1710778654
 H        -9.0087219759        3.1558385778      -11.5164702359
 H        -7.6968853282        1.4349804843      -13.7418318242
 H        -8.9155225281        2.8158310148      -14.0099745841
 H       -12.4227023196       -1.5608235149      -12.6426892341
 H       -12.2979985215       -0.1803462072      -11.5637777243
 H       -12.4982687145       -3.0107775074      -10.6145409081
 H       -13.2390585034       -1.5126568827      -10.1768096603
 H       -11.5914988027       -2.0474272151       -5.5317585169
 H       -13.2257565074       -3.0231955634       -5.5028364855
 H       -13.8572548218       -0.8040004733       -5.1764976495
 H       -14.4396661455       -1.4749440311       -6.6164435091
 H       -12.6020486792        3.4937235401       -4.6434538903
 H       -11.4682437696        2.2814206501       -4.9833973804
 H       -11.8557947376        1.2175776868       -2.7056081991
 H       -12.9645534229        2.6581684032       -2.3322562051
 H       -11.9441169650        6.7639444630       -0.0484634285
 H       -10.3501699188        6.2016895378       -0.4393689666
 H       -11.2380065713        5.6762292636        0.9727364004
 H       -10.5815062536        1.2707146602       -0.1382329214
 H       -12.2246809801        2.1180195234       -0.1508181889
 H       -10.9919796809        2.5390204903        1.0794567654
 H        -8.6209218275        3.2626140072       -1.3384715453
 H        -8.9576374981        3.9327600993        0.3525447743
 H        -9.0320132722        4.9580495998       -1.1233712118
 H       -13.8723214140        3.0110967292       -8.1131509965
 H       -12.2958879098        2.3875997584       -7.9015691487
 H       -13.0330308353        3.4042973523       -6.7001907418
 H       -15.7511221642        0.4120656877       -6.4040534454
 H       -15.5734854670        1.2838586772       -7.8822031594
 H       -15.7754592594        2.2473236731       -6.3908996492
 H       -11.3038092624       -4.5544673333       -9.6371418413
 H       -10.2257795723       -5.0161749616       -8.2167094811
 H        -9.4897024938       -4.1399103844       -9.4963567283
 H        -9.4736081924       -3.0671968657       -6.5723426755
 H        -9.8903217052       -1.3928633268       -6.9232672160
 H        -8.9095395998       -2.2335576285       -8.0063653424
 H       -10.7945324558        0.5119592426      -15.3636497682
 H       -12.0365403433        0.3154707001      -14.0640073718
 H       -11.5247874690       -1.1614011962      -15.0046178261
 H        -8.0986133174       -1.2246650962      -13.6501444763
 H        -8.6195407014       -0.4691897993      -15.1020723070
 H        -9.3004850568       -2.0251462278      -14.7520634440
 H        -6.8150877844        3.9520407364      -10.3128741856
 H        -6.6398587064        3.7146089182       -8.6073475912
 H        -8.2236474973        3.7130141429       -9.3423904456
 H        -5.2526253676        0.5688084309       -9.7832843774
 H        -4.7378166016        2.0766917481       -9.3270166052
 H        -5.1749968351        1.9720262949      -10.9140641913
 H        -6.5002523895        3.1127877783       -3.5296851107
 H        -6.2980914601        1.8084565042       -2.2652504975
 H        -7.6394966985        1.7363181786       -3.4436994837
 H        -4.2461792880        2.7868822890       -4.6065586262
 H        -3.8120708823        1.2327417396       -5.3119272177
 H        -3.9792141668        1.5234745694       -3.5777369619
 H        -6.9613316350       -6.2317056823       -6.4953160227
 H        -7.7469049381       -4.7505498015       -6.8736390302
 H        -6.8291811289       -4.9144255127       -5.2910058761
 H        -3.4820419000       -5.0519430136       -7.3659676292
 H        -4.6022571566       -6.5755329853       -7.2487978008
 H        -4.1513262357       -5.6456519077       -5.8595745650
 H        -3.5126030721       -2.4863475815      -14.8027457455
 H        -3.6245543308       -1.6134409005      -13.3073419021
 H        -5.0772306625       -1.7722896698      -14.3951796709
 H        -6.5895179615       -3.8838492964      -14.1901611892
 H        -5.7175521763       -5.3866146374      -13.9771117856
 H        -5.1172918494       -4.1252308913      -15.2253665193
 H         0.9592018622       -6.6034602452      -13.3935622351
 H         1.6811497132       -7.1737998382      -11.8644999954
 H         2.6138067586       -6.7843819257      -13.3001318127
 H         2.6377383289       -5.3200239809      -10.2858037305
 H         0.8251662081       -5.1035993855      -10.1983189708
 H         1.8389149087       -3.7147668040      -10.4025091750
 H         6.8613423359       -4.4339232163       -9.5875138883
 H         6.5179262302       -2.6622746815       -9.5640118362
 H         8.1331260791       -3.1374961161       -9.5537673557
 H         9.3764913203       -2.3381784159      -11.5049685608
 H         7.9749876931       -1.2994504282      -10.9422909748
 H         8.2290061307       -1.5108915333      -12.6545487699
 H        12.1159054585       -6.8320204630      -13.7074663988
 H        13.7004698721       -5.8321076148      -13.5820932524
 H        13.0865310759       -6.3210447053      -15.0504587559
 H        13.6263858569       -3.8856268098      -12.8340112481
 H        12.1725815396       -2.8559329548      -13.1301150773
 H        13.1783904688       -3.0534771521      -14.4735853475
 H         7.1698122661       -1.2412796963      -19.5991309232
 H         6.8653218306       -1.4237632771      -17.9511515876
 H         6.4690675027       -2.7389239724      -18.9163193632
 H        10.6065906790       -2.5944196075      -19.7541728441
 H         9.4109956011       -1.5622526919      -20.5167829927
 H         9.1386806986       -3.4925364381      -20.3565906692
 Na        8.0421266806       -2.3805585119      -14.9079872181
 Na       -8.0059742545       -1.7387197487      -10.4554672110
