232

 C         9.9685777354        0.0020741024      -18.6133238230
 C         9.2272017191       -1.1117585561      -17.7664475941
 O         8.9102713113       -1.0354050569      -16.5603190524
 C         8.5821686341       -2.2711541137      -18.5569327188
 C         8.8353326490       -3.4756657153      -17.6716784068
 O         7.9556463899       -3.8421320685      -16.8641533711
 C        10.2955893569       -4.0625888342      -17.5943855572
 C        10.7854181860       -4.9532700755      -16.4283823940
 C        11.0352345453       -4.1146947252      -15.0496337644
 O        10.5856421660       -2.9727125559      -14.8730541843
 C        11.9364410747       -4.5957574696      -13.8733231120
 C        10.8983109773       -4.6603143410      -12.6781831020
 O        10.9117840478       -3.6750348103      -11.9232999780
 C         9.9893926361       -5.8936402892      -12.4260716153
 C         8.8126597917       -5.6177198750      -11.4566499618
 C         8.0986715707       -4.3862070287      -12.1460443126
 O         8.2928488795       -4.3681342690      -13.3670225089
 C         7.4472285195       -3.1824466413      -11.4345701302
 C         6.1717296750       -2.8718712290      -12.3588298349
 O         6.2021880675       -2.5614939688      -13.5101314230
 C         4.8779837165       -3.0249384933      -11.6682286155
 C         3.6294873201       -2.8929612112      -12.4875879768
 C         3.0990405724       -4.2157167266      -13.0181588781
 O         3.5955693870       -4.7904289106      -13.9543984688
 C         1.8734038077       -4.8824116268      -12.2991101969
 C         0.5240314904       -4.1491417514      -12.7191770067
 O         0.5910971200       -3.0222075641      -13.2300713669
 C        -0.7999409901       -4.9590439756      -12.5843799137
 C        -2.0703176833       -3.9888701480      -12.4526643029
 C        -3.3537332380       -4.6061930063      -13.0198522784
 O        -3.5423008142       -5.7953064181      -13.1234302706
 C        -4.4961873146       -3.5754637831      -13.3082923539
 C        -5.1533301748       -3.2383189406      -11.8478686010
 O        -5.0357758787       -2.1548873187      -11.2975209899
 C        -5.7656030394       -4.4315553254      -11.0972780357
 C        -5.2310350157       -4.5469215105       -9.6709071399
 C        -6.2097908552       -4.2357897045       -8.6146252205
 O        -7.2094471682       -3.6208250074       -8.7654448812
 C        -5.7097817744       -4.6351711355       -7.1042942166
 C        -5.2367137113       -3.1904448208       -6.5707907276
 O        -4.1480097914       -2.8096134060       -6.9012608502
 C        -6.0112671179       -2.4399379533       -5.5055298041
 C        -5.4591804959       -1.0183617852       -5.3392225751
 C        -6.0739392690       -0.2073884492       -4.2525525198
 O        -6.6891978667       -0.6267045919       -3.3181320562
 C        -5.9157491053        1.4104292048       -4.4824882697
 C        -6.5218011864        1.6815673134       -5.8575978790
 O        -5.8729859432        1.6237838939       -6.9006646721
 C        -8.0750006191        1.5458432703       -6.0303523394
 C        -8.5548174654        1.4196908899       -7.5882343095
 C        -7.4921200610        0.9255388370       -8.5838357900
 O        -7.0949829021       -0.2421924148       -8.5841383095
 C        -6.9100124687        1.9804569356       -9.7739996995
 C        -7.5606760358        1.4679349990      -11.0875512514
 O        -7.5596077470        0.3410229494      -11.5190561096
 C        -8.1365390108        2.5464094927      -12.0077875667
 C        -8.7561890573        1.9670115091      -13.2899864058
 C       -10.0017656296        1.1186294172      -12.9788216606
 O       -10.9119435914        1.6521510532      -12.3434758531
 C       -10.1632759720       -0.3068459767      -13.5215124703
 C       -10.5998615274       -1.3519488157      -12.3743616155
 O        -9.7538328030       -2.1318374670      -11.9248547809
 C       -12.0022732873       -1.1042736217      -11.7494913110
 C       -12.1778319509       -1.9767132404      -10.4279950415
 C       -11.0963020968       -1.8400485321       -9.4165581960
 O       -10.2719920384       -0.9750995874       -9.5061958454
 C       -10.9903891487       -2.8153787995       -8.1990561674
 C       -12.2767158644       -2.9529598725       -7.4612478711
 O       -13.1751246488       -3.5449727112       -8.0691351532
 C       -12.4980633959       -2.3795341928       -6.0955053366
 C       -13.5217879686       -1.2282187204       -6.1412832152
 C       -13.0004753922        0.0885343084       -6.8422860406
 O       -12.0303218694        0.2417436430       -7.5480207098
 C       -13.7734682467        1.4853954509       -6.4682553926
 C       -13.6403386832        1.6897503871       -4.9507595176
 O       -14.4516122540        1.1610148597       -4.1482372444
 C       -12.4436199476        2.4816089249       -4.4184007803
 C       -12.2553474869        2.2915146092       -2.9576124933
 C       -10.9114277804        2.8233495061       -2.5102121533
 O        -9.9746338342        3.0900630377       -3.2395282936
 C       -10.7160569250        3.4602591157       -1.0958034886
 C       -11.7677143128        4.5942960962       -0.7922691596
 O       -12.9223239427        4.4467489826       -1.0117068925
 C       -11.3738665509        5.9696255467       -0.1228572672
 C       -10.9178252181        2.2222197108       -0.1363258964
 C        -9.3033590306        3.9069846986       -0.8832123951
 C       -13.1391251621        2.6453814903       -7.3586479865
 C       -15.3564736283        1.2775049626       -6.8273212451
 C       -10.6686252443       -4.2421270379       -8.7736553443
 C        -9.7661792594       -2.3728986575       -7.3019344196
 C       -11.2161393176       -0.1511624149      -14.6335000879
 C        -8.8965373969       -0.8615034495      -14.2929679897
 C        -7.0578185375        3.4782351971       -9.4833832437
 C        -5.4428875478        1.6312080504       -9.9299697963
 C        -6.6428637992        1.9920145108       -3.1577620088
 C        -4.4310530595        1.6854656702       -4.4568505634
 C        -6.8912513757       -5.3375921733       -6.4475394109
 C        -4.4868888702       -5.4761879818       -7.1048155190
 C        -4.2287469767       -2.1161770329      -13.8878670353
 C        -5.4926437837       -4.3646697260      -14.1252357170
 C         1.8441964681       -6.3827508617      -12.7007445264
 C         1.9103933461       -4.8283306609      -10.6559114777
 C         7.1490769148       -3.4852644369       -9.9323100006
 C         8.5238560506       -2.0420891759      -11.5999697930
 C        12.7800842627       -5.9026986869      -14.2452455301
 C        13.0818202608       -3.4914162526      -13.4733583431
 C         7.0470282246       -1.9942073731      -18.8440979481
 C         9.2155692639       -2.5078465511      -19.9611217780
 H         9.2243501785        0.3416179789      -19.2798122386
 H        10.8770309178       -0.3499607170      -19.2177911494
 H        10.2732414965        0.8112909280      -17.9085947979
 H        10.9562407485       -3.2000015917      -17.5638362205
 H        10.5188351119       -4.5663446539      -18.5379578918
 H        11.6480051803       -5.4809574578      -16.7353426574
 H        10.0287054508       -5.6532741609      -16.2349851995
 H        10.6432327148       -6.6137090164      -11.9432122411
 H         9.6569245572       -6.3313260775      -13.3269544777
 H         9.1978045093       -5.3035291706      -10.4697534251
 H         8.0362271028       -6.3870757112      -11.3080973159
 H         4.8005518580       -2.1862715042      -11.0346718883
 H         4.8511794945       -3.9744305709      -11.1225332492
 H         3.8453930844       -2.3209349058      -13.3452970425
 H         2.9236127823       -2.4742864746      -11.8380628115
 H        -0.7751287204       -5.5712938684      -11.6419322034
 H        -0.8032988213       -5.5371817620      -13.5206482375
 H        -1.6687370360       -3.1887489083      -13.1330292384
 H        -2.1832074308       -3.6512365962      -11.4338468614
 H        -5.7421065661       -5.3918759525      -11.5898382695
 H        -6.7517568859       -4.0191576980      -11.0166369466
 H        -4.3798970419       -3.9040394330       -9.4975367440
 H        -5.0094782366       -5.5963943650       -9.4788794096
 H        -6.0300376665       -2.9769955397       -4.5965763251
 H        -7.0927250587       -2.3636246270       -5.7170375598
 H        -5.7531044763       -0.5096102366       -6.3433388289
 H        -4.3636936528       -1.0957662714       -5.2349543919
 H        -8.6506727766        2.4023927988       -5.5399657958
 H        -8.2611754522        0.6447920766       -5.3382894754
 H        -9.0380249065        2.3081204794       -7.9225270526
 H        -9.4039272313        0.6413568263       -7.5926076857
 H        -7.2074524869        3.1754891783      -12.2276876062
 H        -8.8653551613        3.0440226024      -11.3626610910
 H        -7.9489666155        1.5606483666      -13.8664238834
 H        -9.2603794266        2.8489840444      -13.8007945545
 H       -12.8299626086       -1.2368326577      -12.4630231939
 H       -12.0409682200       -0.0245635006      -11.4219505205
 H       -12.3469838021       -3.0375495847      -10.7865344093
 H       -13.1494639189       -1.7698554074       -9.9379949565
 H       -11.6014886233       -1.8928724798       -5.7882498394
 H       -12.8027774825       -3.2625106975       -5.4540369121
 H       -13.9287576326       -0.9212096966       -5.1289578643
 H       -14.4384793624       -1.5346627090       -6.6297612787
 H       -12.5920993566        3.5423418358       -4.5980921818
 H       -11.5146983909        2.2676423680       -5.0146351739
 H       -12.2457806667        1.1942210099       -2.7012448223
 H       -12.9999635313        2.8911590401       -2.4039345957
 H       -12.1946899337        6.6982829365        0.0770456059
 H       -10.6080430253        6.5139914516       -0.6707797279
 H       -11.0195801262        5.8155653396        0.8742747312
 H       -10.2437357786        1.4265765088       -0.5372533515
 H       -11.9962828708        1.8613903786       -0.1851893594
 H       -10.6123221712        2.4196039117        0.9050988997
 H        -8.6875197496        3.0794722248       -1.2523364849
 H        -9.1560112947        4.0324155543        0.1563266345
 H        -9.0368213136        4.7732381633       -1.4478624583
 H       -13.8773887652        3.1324247590       -8.0510654815
 H       -12.2440058537        2.4517879565       -7.9320788148
 H       -12.8468340485        3.3667347360       -6.6778075051
 H       -15.8294250035        0.5974212673       -6.1676766211
 H       -15.5051360923        0.8484053982       -7.7560160932
 H       -15.8610922169        2.2456932548       -6.8424016268
 H       -11.5436089328       -4.7354768788       -9.1997380536
 H       -10.2216268930       -4.7671815809       -7.9933516143
 H        -9.8132432565       -4.1502180430       -9.4424890506
 H        -9.8572862835       -3.0559720050       -6.5281044986
 H        -9.7753479374       -1.3781386199       -6.9081032391
 H        -8.8469949762       -2.5208516338       -7.8542497914
 H       -10.5973219907        0.3189232891      -15.3569733379
 H       -12.1278107847        0.4722610768      -14.4437133249
 H       -11.4759749551       -1.1977651072      -14.9984804825
 H        -8.0946047064       -0.9358763413      -13.5259430660
 H        -8.5722482928       -0.0951675418      -15.0021718915
 H        -9.1367817805       -1.8036774666      -14.7662137646
 H        -6.6483145467        3.9766786544      -10.3116372187
 H        -6.4882921932        3.5983994122       -8.5334116953
 H        -7.9738055224        3.8904505155       -9.3389355117
 H        -5.2638723908        0.6014610328       -9.6717258560
 H        -4.7410034449        2.1007174178       -9.3189723014
 H        -5.0411213332        1.8375106328      -10.8900620447
 H        -6.7321976164        3.1204306270       -3.1925740783
 H        -5.9982571169        1.7417882937       -2.1550616697
 H        -7.6630800799        1.3891698585       -3.1660695357
 H        -4.2447558463        2.6833004670       -4.1492673340
 H        -4.0018150180        1.5951955669       -5.4140506173
 H        -3.8609708726        1.1058745428       -3.7657671221
 H        -6.6397912743       -6.3355902466       -6.1197259439
 H        -7.8722768814       -5.3260653713       -6.9347182725
 H        -6.8647527046       -4.7561363837       -5.5338785383
 H        -3.7411218157       -4.9551492707       -7.7120081858
 H        -4.7729387626       -6.5069581915       -7.4391292348
 H        -4.0543986847       -5.5762669770       -6.1227264945
 H        -3.7251652954       -2.2135704620      -14.7930529037
 H        -3.5197875363       -1.6871281261      -13.1444646777
 H        -5.1401313823       -1.5790860953      -14.0129249119
 H        -6.4219175129       -3.7439520718      -14.1570701025
 H        -5.8617446054       -5.2128529456      -13.5506862557
 H        -5.2157541933       -4.6258843063      -15.1678398728
 H         1.0033573203       -6.6426116378      -13.2904665238
 H         1.8770377206       -7.0253326417      -11.8568030396
 H         2.6411469093       -6.6137672158      -13.3257530522
 H         2.5290197930       -5.6304220474      -10.2566740722
 H         0.8756767739       -5.0912212652      -10.3531983582
 H         2.1424286795       -3.9055300413      -10.1063822577
 H         6.5088855554       -4.2551600550       -9.6769330285
 H         6.7849594570       -2.5156406427       -9.5279408903
 H         8.1596918354       -3.5124669826       -9.4278618876
 H         9.4177586220       -2.4762858405      -11.2647247213
 H         8.2198860671       -1.2406568666      -10.9086712870
 H         8.5846242682       -1.5554147682      -12.6460485083
 H        12.2848442308       -6.6865039514      -13.7193084692
 H        13.8330488161       -5.7885246324      -14.0340297382
 H        12.7871320181       -6.2298957917      -15.2547941304
 H        13.4731110033       -3.8474611985      -12.4714895045
 H        12.5873103737       -2.5433778647      -13.4095679595
 H        13.6475146991       -3.5501153617      -14.3326012048
 H         6.8459438623       -1.0925039915      -19.4987078904
 H         6.4595122438       -1.8500985864      -17.9219920314
 H         6.7180748251       -2.9058700692      -19.2374252046
 H        10.3150573006       -2.4495030307      -19.9292663402
 H         8.8898413349       -1.6649690152      -20.6107423707
 H         8.9285333819       -3.5450882085      -20.2100611811
 Na        8.1759570123       -2.4226727564      -14.8975361552
 Na       -7.9629445507       -1.7377312413      -10.4983822606
