232

 C         9.8918585848       -0.0345109471      -18.6807977805
 C         9.0563179710       -0.9853745090      -17.9342288823
 O         8.9332314899       -0.8445387857      -16.7366916158
 C         8.5033085597       -2.4025167746      -18.6897139948
 C         8.8179667594       -3.4556453130      -17.5747173367
 O         7.9887904346       -3.8618392555      -16.7429300761
 C        10.2660473256       -4.0506981284      -17.4985816659
 C        10.6403119924       -4.7597206626      -16.2032206347
 C        11.0530151623       -3.9343293175      -15.0257037597
 O        10.6147205247       -2.8087615229      -14.8858620697
 C        12.0209310336       -4.5513335186      -13.8668122987
 C        11.1278097443       -4.7199337916      -12.5920945156
 O        10.8620593591       -3.7422808018      -11.8995624703
 C        10.1451939014       -5.9390271515      -12.3743878237
 C         8.9144899635       -5.6095611756      -11.5269746540
 C         8.2394222355       -4.4090692418      -12.2605945551
 O         8.0948408322       -4.3763386744      -13.4405142086
 C         7.5841401213       -3.1266854485      -11.4351293979
 C         6.2497936393       -2.8687628524      -12.3753224813
 O         6.3918478402       -2.6158429346      -13.5427727555
 C         4.8625631878       -2.8405708187      -11.6546806602
 C         3.6946364827       -2.8033675125      -12.6549925084
 C         3.1986364524       -4.1876642222      -13.0843624694
 O         3.6567101877       -4.8029250291      -14.0066947079
 C         1.8530338709       -4.9391353216      -12.3103130926
 C         0.5225276190       -4.1346012678      -12.6730639707
 O         0.4702646386       -2.9851745253      -13.0489216008
 C        -0.7840924883       -4.9263279146      -12.5722574504
 C        -2.0874096709       -4.0016945820      -12.4493833241
 C        -3.3499062582       -4.5648281451      -13.0258422432
 O        -3.5592472795       -5.7953739898      -13.1686993709
 C        -4.5957086538       -3.5643068441      -13.1743965639
 C        -5.0884525395       -3.2533957361      -11.7834843204
 O        -4.9761561951       -2.1044878516      -11.3541164752
 C        -5.6978924381       -4.4687101271      -11.0662755212
 C        -5.3036593478       -4.6611675431       -9.6569235667
 C        -6.2955564293       -4.1646545642       -8.6057043160
 O        -7.3184752220       -3.5549822918       -8.8396811373
 C        -5.8158374280       -4.5725239601       -7.1448940255
 C        -5.2634163301       -3.2314186033       -6.5483481951
 O        -4.1573069363       -2.8767950475       -6.9192340101
 C        -6.0908435797       -2.3539652846       -5.5909874920
 C        -5.4378099795       -1.0221920214       -5.4395875076
 C        -6.0853724865       -0.1629655753       -4.3500266574
 O        -6.7065554487       -0.6311234206       -3.4092823701
 C        -5.9148985214        1.4120878928       -4.4338258295
 C        -6.5694379134        1.6266933838       -5.8108174311
 O        -5.8034305419        1.6485919185       -6.7687827589
 C        -8.1091978668        1.4181463511       -6.1056718060
 C        -8.4314162027        1.5833387140       -7.5894609863
 C        -7.4008642223        0.9815180593       -8.4960645275
 O        -7.0427963638       -0.2682167704       -8.4817740688
 C        -6.8191682241        1.8351744770       -9.7611964645
 C        -7.5036851812        1.5021892383      -11.1628671000
 O        -7.5677261676        0.3535982662      -11.5273716054
 C        -8.1188327221        2.6355763263      -12.1027164225
 C        -8.8956913133        2.0441604765      -13.2439923010
 C       -10.1392085494        1.1507637150      -12.9389553755
 O       -11.1050527537        1.5530289952      -12.2864136156
 C       -10.2468608434       -0.2743940177      -13.6387002326
 C       -10.6945363617       -1.2330399350      -12.4458122012
 O        -9.8715877358       -2.0829840189      -12.1287626062
 C       -11.9420503655       -1.1190983143      -11.6578190414
 C       -12.1023812903       -2.0904121117      -10.4479669896
 C       -10.9319848619       -1.8317374051       -9.4473152560
 O       -10.1519823597       -0.9049935642       -9.5322270992
 C       -10.8672389658       -2.8744001797       -8.2636101103
 C       -12.3305266882       -2.8832268129       -7.5447047444
 O       -13.2402447555       -3.5123585143       -8.0558454248
 C       -12.5197427296       -2.2782978394       -6.1035336009
 C       -13.5395719641       -1.1244664130       -6.1311470713
 C       -12.9917055654        0.1042660073       -6.6533750652
 O       -12.0153485055       -0.0075261734       -7.3376929406
 C       -13.7904744247        1.4720147170       -6.4005013786
 C       -13.7678200873        1.7527611136       -4.8634890521
 O       -14.4985843369        1.2138380342       -4.0779320755
 C       -12.5119918402        2.4984984971       -4.4189087507
 C       -12.2905055362        2.3781720367       -2.9147166350
 C       -10.8389365464        2.9650683427       -2.5857448320
 O        -9.9310096383        2.7930218015       -3.3882698267
 C       -10.6518327220        3.4486846108       -1.0617077547
 C       -11.7992982211        4.5329337914       -0.7382807104
 O       -12.9838857533        4.3230376576       -0.9179714634
 C       -11.3147515613        5.8831471648       -0.2396764457
 C       -10.8712779524        2.1902125401       -0.1517427178
 C        -9.2399529849        3.9804361921       -0.9942356539
 C       -13.2390393474        2.5759864905       -7.2513268946
 C       -15.2858939357        1.2264895224       -6.8078262272
 C       -10.7155433776       -4.3229456663       -8.6738457261
 C        -9.8012613020       -2.3530328469       -7.2652618496
 C       -11.4367561302       -0.2145550417      -14.7235244712
 C        -8.8165845786       -0.7538770349      -14.0870684139
 C        -7.0215232486        3.3026419519       -9.4122121359
 C        -5.2904722814        1.5325162926       -9.9045425702
 C        -6.6672151052        2.1136929055       -3.2459533208
 C        -4.3957204968        1.7331629974       -4.3844340265
 C        -6.9960143722       -5.3800753513       -6.3160161926
 C        -4.5554212045       -5.5579892330       -7.2877099156
 C        -4.1200238487       -2.2431513882      -13.8196170686
 C        -5.6315896220       -4.3098123478      -14.1317915491
 C         1.8324049279       -6.3780030620      -12.6867354284
 C         2.0815450703       -4.8295915625      -10.7919886489
 C         7.1537284313       -3.4473151210      -10.0528322810
 C         8.5442170333       -1.9453849784      -11.4344123173
 C        12.6371231552       -5.9427165394      -14.2891230015
 C        13.0988901026       -3.5135386131      -13.5224054121
 C         7.0096619175       -2.1354281726      -18.7351541271
 C         9.0158627478       -2.5272489499      -20.1385099114
 H         9.3023650464        0.3824212250      -19.5158625882
 H        10.7460821614       -0.5903821338      -19.1401389686
 H        10.2613542953        0.7030359378      -17.9504480800
 H        11.0466095716       -3.3091783992      -17.7300167311
 H        10.3064899046       -4.8268649222      -18.3050300191
 H        11.3933173735       -5.4855298404      -16.4977914372
 H         9.7462705362       -5.2910461588      -15.8693465524
 H        10.6394302074       -6.7855496363      -11.8529410845
 H         9.7967903882       -6.3408771948      -13.3309778106
 H         9.0777320418       -5.3834817225      -10.4802257967
 H         8.1175074190       -6.3417937543      -11.5422627746
 H         4.8058791692       -1.9644166944      -11.0448576080
 H         4.7634240911       -3.8503501140      -11.1255351149
 H         4.1578526701       -2.5090896906      -13.5941922497
 H         2.9125922531       -2.2017865153      -12.3552452606
 H        -0.7552909012       -5.4554567751      -11.6196908839
 H        -0.8271138667       -5.5873192121      -13.4197769743
 H        -1.7269280663       -3.0754587422      -12.9221545509
 H        -2.3410145465       -3.8735621754      -11.3566317125
 H        -5.3055494699       -5.3755445353      -11.6287993232
 H        -6.7854464092       -4.4124557551      -11.2399968997
 H        -4.4333928562       -3.9946664891       -9.4767267261
 H        -5.0761209871       -5.7218392997       -9.4931750123
 H        -6.2321902802       -2.8562937035       -4.5871690791
 H        -7.1199180526       -2.2191186008       -5.9086854383
 H        -5.3477337716       -0.5905240539       -6.4358627522
 H        -4.4575983439       -1.2772838881       -5.0653145200
 H        -8.6666140736        2.2184420497       -5.5775713988
 H        -8.3683966610        0.4993125968       -5.6417390960
 H        -8.7697554867        2.5715518937       -7.8917888557
 H        -9.3540021906        0.9855395326       -7.7005777240
 H        -7.2337687468        3.3201081202      -12.3155310580
 H        -8.8164152394        3.0427314597      -11.3207767143
 H        -8.1207853954        1.4219001573      -13.6803418118
 H        -9.2735589973        2.7478094206      -13.9848088002
 H       -12.8307147721       -1.2244864939      -12.3080359941
 H       -12.0115415723       -0.0486631278      -11.2724174150
 H       -12.2028089008       -3.0384511987      -10.9366947088
 H       -13.1117839889       -1.9707995972       -9.9888216683
 H       -11.6157529143       -1.8556594343       -5.7384356047
 H       -12.8629188426       -3.1163232803       -5.5462021968
 H       -14.1098016744       -0.9459387355       -5.2283300282
 H       -14.3080148545       -1.3889948954       -6.8380120803
 H       -12.5303350101        3.5700026736       -4.7014302663
 H       -11.6801061311        2.1052841818       -5.0222409666
 H       -12.0612670683        1.3464777229       -2.6975226050
 H       -13.1742579368        2.8041052924       -2.3670730769
 H       -12.1191863613        6.5364011401        0.1568367265
 H       -10.8570093454        6.4118691882       -1.0615812279
 H       -10.6300772008        5.8909571797        0.6593148760
 H       -10.1513432212        1.4955806937       -0.5614363907
 H       -11.8592049118        1.7328647450       -0.1158210424
 H       -10.5368022157        2.4315608815        0.8745045382
 H        -8.5389605399        3.1814969035       -1.0350116636
 H        -8.9919939535        4.5521076539       -0.0924292700
 H        -9.1382679058        4.5166338396       -1.8904131300
 H       -13.9397471322        2.9590928251       -8.0370783339
 H       -12.3319724673        2.2927773185       -7.7437058961
 H       -12.8568425488        3.4286675271       -6.6035390317
 H       -15.7538370987        0.7964863201       -5.9893160263
 H       -15.4275711961        0.4909391529       -7.6026685246
 H       -15.7011341356        2.1097275826       -7.1585759837
 H       -11.6965709726       -4.6609637958       -8.9207719411
 H       -10.2727363290       -4.8360273269       -7.8605119101
 H       -10.0376317609       -4.4218303911       -9.4639603627
 H       -10.0674141374       -2.9481070946       -6.3407296185
 H       -10.0764600100       -1.3431497906       -7.0053831189
 H        -8.7605080219       -2.4146148191       -7.5924997192
 H       -11.0747555016        0.4102580093      -15.5236800300
 H       -12.2940202667        0.2881680059      -14.2391600409
 H       -11.7439837214       -1.1975056019      -15.0281795417
 H        -8.1072216678       -0.6267058765      -13.2711791036
 H        -8.5180944083        0.0312306041      -14.9208423033
 H        -8.8689527886       -1.7713480805      -14.4662078397
 H        -6.5148664866        3.8498481416      -10.2556866983
 H        -6.7038519439        3.4982988143       -8.3865071393
 H        -8.0246800829        3.7198914458       -9.4778053209
 H        -4.8733850751        0.5750968053       -9.8742788522
 H        -4.7470896697        1.9842049907       -9.0790579440
 H        -4.8683491990        2.0383879957      -10.7414511454
 H        -6.6232183765        3.2354459464       -3.3509066432
 H        -5.9379511407        1.9312600566       -2.4427073752
 H        -7.6757588329        1.6257493440       -2.9647328207
 H        -4.2159399087        2.6818809464       -3.8979707708
 H        -4.1481157836        1.9239490954       -5.3721323957
 H        -3.6833436166        1.0090868683       -3.9844692440
 H        -6.4062417887       -6.2717794865       -5.8903532667
 H        -7.8935045218       -5.7209577309       -6.8638056856
 H        -7.2142598121       -4.8681047775       -5.4501437181
 H        -3.6677931249       -5.0345752681       -7.6463080056
 H        -4.8250563357       -6.4716290718       -7.7483632956
 H        -4.3196253734       -5.8055363477       -6.2275797424
 H        -3.8148161311       -2.5238749344      -14.8228921835
 H        -3.3066254643       -1.8195976426      -13.2604832959
 H        -4.9869446487       -1.5587391995      -13.8623168962
 H        -6.4691443080       -3.6652262393      -14.4613929196
 H        -6.0753161226       -5.0992988376      -13.5635726494
 H        -5.1561560455       -4.6607818557      -15.0416209096
 H         0.9820237826       -6.6990156184      -13.2664414616
 H         1.9050802701       -7.0905448857      -11.8954974610
 H         2.6516006979       -6.4912408295      -13.3456369238
 H         2.8145071434       -5.5093423715      -10.3751653171
 H         1.1763739294       -5.0627192541      -10.2841950360
 H         2.3605951512       -3.8042803880      -10.5156007062
 H         6.2777644254       -4.1337772736      -10.1399943369
 H         6.9190477953       -2.5857929520       -9.5051477782
 H         7.9411628974       -3.9061500681       -9.4686196859
 H         9.3884939665       -2.3455293245      -10.7831289301
 H         8.1169751704       -1.0684122694      -11.0452966156
 H         8.8738348061       -1.7476065890      -12.4753377837
 H        12.1594982260       -6.7250876326      -13.7659503347
 H        13.7590458989       -6.0114833213      -14.1957749492
 H        12.5358224273       -6.1627611803      -15.3393381949
 H        13.0701211547       -3.5312335020      -12.4852144760
 H        12.7362616711       -2.5672092820      -13.8762531263
 H        14.0277472537       -3.8836643890      -14.1150942663
 H         6.6714358949       -1.0533611996      -18.9681069679
 H         6.4974576513       -2.4242411714      -17.7716727527
 H         6.6337059845       -2.9064134419      -19.4524073363
 H        10.1114509151       -2.4394713640      -20.1132585689
 H         8.6565284193       -1.6882685358      -20.6770807669
 H         8.7923994918       -3.4864764208      -20.4714047201
 Na        8.2983539748       -2.5631760525      -14.8865296214
 Na       -7.8250154351       -1.7261785865      -10.3857644485
