232

 C         9.8394257731       -0.0459097408      -18.8964211991
 C         9.0208746440       -0.9740105668      -18.0028976249
 O         8.8133462877       -0.7683829122      -16.8543252028
 C         8.4237775228       -2.3755740234      -18.6495206952
 C         8.8583938381       -3.4864375501      -17.5512891436
 O         8.0361868674       -3.8036106802      -16.7616927164
 C        10.2590509009       -4.0405795467      -17.5119129329
 C        10.4024048512       -4.6991467280      -16.0542568298
 C        11.0435694120       -3.8083497184      -14.9559507404
 O        10.7375630463       -2.6579930610      -14.7882169430
 C        12.0049853978       -4.5380685019      -13.9176173741
 C        11.0135901135       -4.6802552549      -12.6233088665
 O        10.9631899883       -3.8116141330      -11.8422798531
 C        10.3403497838       -6.0112622763      -12.3772230258
 C         9.0937373791       -5.4908157762      -11.6585977360
 C         8.2512283933       -4.4189158413      -12.3637560951
 O         8.1572215375       -4.5641895962      -13.5660897972
 C         7.5672994774       -3.1892297581      -11.4852576671
 C         6.3120625853       -2.7189193513      -12.2972443589
 O         6.4592766212       -2.5023331974      -13.5289499588
 C         4.9020401897       -2.7047993070      -11.7506842809
 C         3.6710782527       -2.7134395442      -12.8704269257
 C         3.1153976526       -4.1651693191      -13.1985543165
 O         3.7224550456       -4.8442931103      -14.0014370092
 C         1.9335038462       -4.8865244623      -12.3930450247
 C         0.5305962111       -4.1359019016      -12.6591127825
 O         0.5022602338       -2.9540987036      -12.8121063455
 C        -0.8475742205       -5.0000844737      -12.5113836650
 C        -1.9876889671       -3.9931710468      -12.3995018770
 C        -3.3193580141       -4.5857908326      -12.9312187942
 O        -3.4872817801       -5.7292919146      -13.2411678083
 C        -4.5350789498       -3.5521817976      -13.2521446289
 C        -5.1300982979       -3.2675378027      -11.8807865118
 O        -5.1039064348       -2.2410163766      -11.2517001650
 C        -5.8106786764       -4.4343396885      -11.1582875136
 C        -5.3083875729       -4.6763138020       -9.7297992793
 C        -6.3222919518       -4.2312223583       -8.5559833284
 O        -7.3509085085       -3.5359257909       -8.8329737423
 C        -5.8901800851       -4.6633181991       -7.1391874391
 C        -5.3195891669       -3.3293977718       -6.5298715599
 O        -4.2149972325       -2.9565863058       -6.9121758663
 C        -6.1376062409       -2.3550057059       -5.7210727927
 C        -5.3606990668       -1.0082642785       -5.3875088623
 C        -6.0566004886       -0.1684594799       -4.2729604270
 O        -6.7889776504       -0.7740592103       -3.4957860022
 C        -5.9091364628        1.3988491398       -4.4062024976
 C        -6.5693970623        1.6331098440       -5.8887494239
 O        -5.7962493856        1.8341652482       -6.8020535762
 C        -8.0279294131        1.3485795836       -6.1171775002
 C        -8.2870226012        1.6211780014       -7.5716973716
 C        -7.3405859657        0.9413263211       -8.5796936733
 O        -7.1004553638       -0.2554531753       -8.4199832369
 C        -6.6987078928        1.8484583738       -9.7622487610
 C        -7.5417339496        1.4639507361      -11.0502111891
 O        -7.5612620359        0.3443998482      -11.5205949429
 C        -8.2053981716        2.5449858903      -11.9645061131
 C        -9.0382824603        2.1373238003      -13.1801570461
 C       -10.2823034579        1.2388912272      -12.9641754525
 O       -11.1457043668        1.6088916399      -12.2360150170
 C       -10.3291171602       -0.2268095107      -13.6342475964
 C       -10.6407582880       -1.2240054565      -12.4338827594
 O        -9.8794577378       -2.1446815258      -12.2283007764
 C       -11.9458007337       -1.0799938405      -11.6568522044
 C       -11.9085967075       -2.1196418047      -10.5398891180
 C       -10.8547829847       -1.8721758584       -9.4692361822
 O        -9.9729895286       -0.9789635175       -9.6121226761
 C       -10.8958318215       -2.8915067466       -8.1356799518
 C       -12.4265434428       -2.8269928183       -7.4573580599
 O       -13.3223289925       -3.3438814486       -8.0562446973
 C       -12.6587550397       -2.2746732007       -6.0650614375
 C       -13.7629618251       -1.2480264126       -6.0268481380
 C       -13.0845311736        0.0867971926       -6.6045354568
 O       -11.9549480757        0.0858652272       -7.1048447917
 C       -13.8316921734        1.4092924663       -6.4397573623
 C       -13.7142421732        1.6579056084       -4.8134094421
 O       -14.5862312104        1.2947789151       -4.0909239234
 C       -12.5261862164        2.5607246043       -4.4182302740
 C       -12.2871085203        2.3992964369       -2.8814667263
 C       -10.8263719188        2.8228131022       -2.5467922371
 O        -9.9598072550        2.6605444492       -3.3841465324
 C       -10.5612324009        3.4226012405       -1.1847822223
 C       -11.7341946290        4.4838512195       -0.7368735093
 O       -12.9328891829        4.1366500771       -0.7643413099
 C       -11.2741068249        5.8273964527       -0.3581435901
 C       -10.8214340436        2.2599690344       -0.1948628272
 C        -9.1155919173        4.0744664728       -1.0765582517
 C       -13.2594544672        2.5764282084       -7.2660420182
 C       -15.3108704808        1.1076991039       -6.7846047091
 C       -10.5894709787       -4.3882461432       -8.6793720974
 C        -9.7750541557       -2.3799448744       -7.2194897414
 C       -11.4427680454       -0.2996526280      -14.6727529601
 C        -9.0390269948       -0.7149475463      -14.1493943299
 C        -6.8870301465        3.3206420251       -9.3743964322
 C        -5.2469112676        1.4178802644       -9.8954532598
 C        -6.7338622848        2.2129717190       -3.3697547572
 C        -4.4443796906        1.8316705085       -4.3853555110
 C        -7.0297233241       -5.1954523997       -6.2650993887
 C        -4.7106407005       -5.6939812343       -7.1685106158
 C        -3.9727228483       -2.3098824325      -13.9936580696
 C        -5.7435649155       -4.1383095344      -14.1067141180
 C         1.8142652067       -6.4266199266      -12.8033780853
 C         2.2479501730       -4.6580812581      -10.8862882397
 C         7.2115595973       -3.5634793653      -10.0034999489
 C         8.5242020212       -1.8668288182      -11.3822917405
 C        12.5320469859       -5.9992566008      -14.2448062487
 C        13.1730525700       -3.4915599163      -13.6058556455
 C         6.7751544266       -2.2961645595      -18.5656736481
 C         8.9279049550       -2.5851979837      -20.0615842738
 H         9.1968181889        0.2296518964      -19.8115440021
 H        10.6633881774       -0.5590996110      -19.2978442596
 H        10.1597815381        0.7686404395      -18.2751905767
 H        11.0118533161       -3.2134202334      -17.5977249001
 H        10.4689798121       -4.7677904460      -18.3245842861
 H        11.1311489955       -5.5506391763      -16.2055014921
 H         9.3811995179       -5.0963357686      -15.7488951581
 H        10.8739780242       -6.6608210234      -11.6473859667
 H        10.1221639504       -6.6606687417      -13.2893835087
 H         9.2693683472       -5.1888336839      -10.6411263084
 H         8.2801774326       -6.2019609389      -11.5551384901
 H         4.7435594081       -1.6963071113      -11.2278039477
 H         4.7706782344       -3.6088253999      -11.1567998939
 H         4.0336077141       -2.3736326630      -13.8550227093
 H         2.7984929863       -2.0885711860      -12.4551257860
 H        -0.8517338483       -5.6445029271      -11.6890464423
 H        -1.0566013561       -5.5417754742      -13.4419283180
 H        -1.6028538757       -3.2231448162      -13.0233510172
 H        -2.1642720890       -3.6423690535      -11.3458091111
 H        -5.4081126641       -5.3271109023      -11.7102899809
 H        -6.9597808000       -4.5028353952      -11.2387876098
 H        -4.3026732511       -4.2169476785       -9.5771465397
 H        -5.2769585835       -5.7780770092       -9.6403154291
 H        -6.5597875349       -2.9138014317       -4.8109731970
 H        -7.0414992580       -2.1063651341       -6.2960844990
 H        -5.1899672374       -0.5137091455       -6.2900256824
 H        -4.3665021230       -1.3489227196       -5.0552798099
 H        -8.5969310693        1.9654825414       -5.4988572260
 H        -8.1435406782        0.3768026145       -5.7741608479
 H        -8.3746723304        2.7262774762       -7.7326917655
 H        -9.2916727439        1.3557722022       -7.7071905446
 H        -7.2614117617        2.9771022665      -12.2467042128
 H        -8.8080276220        3.2469326682      -11.3451669468
 H        -8.2992283293        1.6754956583      -13.8927444652
 H        -9.4147177999        3.0113109647      -13.6481859615
 H       -12.8646409184       -1.3042162855      -12.2495193362
 H       -12.1183799784       -0.0735193797      -11.2926419306
 H       -11.8027910038       -2.9844859922      -11.1518553494
 H       -12.8719156568       -2.2575791755      -10.0628366703
 H       -11.7563456512       -1.8077813730       -5.6075621385
 H       -12.9130297532       -3.1444549244       -5.5473446603
 H       -13.9611770093       -1.0651378448       -5.0032909065
 H       -14.7078375583       -1.6258965429       -6.4476136451
 H       -12.8277687477        3.6153727726       -4.6406239660
 H       -11.7302125005        2.3579713577       -5.1074484211
 H       -12.4653551774        1.4098821709       -2.5167124890
 H       -12.9487649956        3.1486780852       -2.4665115933
 H       -12.0620835045        6.3560581688        0.1395425336
 H       -11.0084340178        6.3970841175       -1.2790962897
 H       -10.5008123669        5.9190739314        0.4275040765
 H       -10.1671229069        1.4470110346       -0.4275310878
 H       -11.7978433589        1.8936766915       -0.1558610726
 H       -10.5668581578        2.6790937468        0.7617289276
 H        -8.3173932441        3.3842021443       -0.8702033041
 H        -9.0887510669        4.6891665700       -0.1658509756
 H        -8.9246132064        4.6193530970       -2.0065286101
 H       -13.7797591140        2.6830878772       -8.1806079832
 H       -12.1958195833        2.2487817408       -7.5102413011
 H       -13.0537042229        3.5916559977       -6.7968710996
 H       -15.7632112529        0.6543930519       -5.8750427191
 H       -15.4656937310        0.3477760573       -7.5776622650
 H       -15.7399434506        2.0010296757       -7.2001251651
 H       -11.4856505618       -4.6766833027       -9.1372489271
 H       -10.2997974522       -5.0428437499       -7.8214833428
 H        -9.7799195924       -4.3484363679       -9.3738837818
 H        -9.7293461184       -2.9040536731       -6.2162104312
 H       -10.0116602941       -1.2985012926       -6.9763724054
 H        -8.8706763429       -2.4327313601       -7.8532199864
 H       -11.2379676695        0.4153357203      -15.4918653226
 H       -12.2911569619       -0.0135646000      -14.1404655577
 H       -11.5943262094       -1.2759857144      -14.9870298596
 H        -8.1893535343       -0.5227020973      -13.4755867979
 H        -8.8540142022       -0.2547356896      -15.1011916626
 H        -9.2270684607       -1.8202673463      -14.2926354185
 H        -6.3915798878        3.9411765091      -10.1642060266
 H        -6.6895117527        3.5155975626       -8.3366308772
 H        -8.0125525480        3.7011658528       -9.5274769018
 H        -4.8922970797        0.4609618504      -10.2602272222
 H        -4.7414600350        1.4476480243       -8.9149308767
 H        -4.6700364042        2.1427145307      -10.4943137576
 H        -6.5152650674        3.2442391201       -3.6263712145
 H        -6.2385149828        2.0589313311       -2.5064977110
 H        -7.6769274770        1.9727698750       -3.2704888797
 H        -4.2509683050        2.7588975553       -3.8089544061
 H        -4.1472301065        2.1161387279       -5.4586400708
 H        -3.7410931750        1.0408800387       -4.0677664556
 H        -6.5880503189       -5.9765815184       -5.6679226638
 H        -7.6703524486       -5.6812366032       -6.9765163052
 H        -7.5735358053       -4.5224044733       -5.5245342354
 H        -3.8125843196       -5.1466549798       -7.3922912505
 H        -4.8835909790       -6.5855415894       -7.7220829562
 H        -4.6214779988       -5.9064986111       -6.0937201480
 H        -3.6573557345       -2.5259109443      -15.0702348419
 H        -3.2583264926       -1.8159053353      -13.3880923409
 H        -4.9014463510       -1.7131364990      -13.9797416656
 H        -6.4241346568       -3.3564193575      -14.4319335496
 H        -6.2590787390       -4.9539943077      -13.5396909759
 H        -5.3400640197       -4.4929035795      -15.0148330589
 H         0.8596948278       -6.6189033502      -13.3209410755
 H         1.7085136392       -7.0948314370      -11.9328558415
 H         2.6368265968       -6.8012673419      -13.4779986678
 H         3.2088001618       -5.0644373660      -10.5910280135
 H         1.5561897916       -5.1659204729      -10.2427812869
 H         2.3048905873       -3.6062629957      -10.6908787118
 H         6.5318248692       -4.4630239989      -10.0592550754
 H         6.7798658769       -2.7358569679       -9.4622909892
 H         8.0673030300       -3.8079082408       -9.4761601750
 H         9.1682396073       -2.0004338371      -10.4887077867
 H         7.8907081702       -0.9711500903      -11.3275562314
 H         9.0813301653       -1.7940362133      -12.2593392938
 H        11.9942453594       -6.9305571338      -13.8849668480
 H        13.5464094553       -6.0410774959      -13.8026061772
 H        12.8082326159       -6.0764889731      -15.3153210976
 H        12.9355775205       -3.3191649097      -12.5921950915
 H        12.8926330856       -2.5710368393      -14.1582167765
 H        14.1180364139       -3.9401895117      -13.9206193779
 H         6.4123764164       -1.2633804021      -18.6124085570
 H         6.2547213916       -2.7498133545      -17.6860093982
 H         6.4623055658       -2.9513587172      -19.4782041699
 H         9.9684294694       -2.7484183936      -20.0844422161
 H         8.6849249177       -1.7887559527      -20.6878537974
 H         8.5106476543       -3.5352880489      -20.2992901960
 Na        8.4008227461       -2.6237520319      -14.9408186284
 Na       -7.6830796048       -1.6662641608      -10.2153098501
