232

 C         8.5844641353       -0.1729128599      -19.2198706674
 C         8.3854952521       -1.1410005965      -18.1312773282
 O         8.7324121172       -0.8162390443      -17.0283374057
 C         8.0657716139       -2.6754350824      -18.4219147317
 C         8.4969313504       -3.6189561264      -17.3316564153
 O         7.7379465657       -4.0724230977      -16.4913686760
 C         9.9648809535       -3.9754797506      -17.3030350045
 C        10.5378638711       -4.7707552527      -16.1239767235
 C        11.0258957212       -3.9744495478      -14.9225683262
 O        10.6190358025       -2.8796294315      -14.6034922898
 C        12.1746472166       -4.4130608993      -13.9279521013
 C        11.4185064348       -4.5003820421      -12.5356431915
 O        11.6661607435       -3.8013357639      -11.6428960393
 C        10.3561335830       -5.6641533853      -12.5278016958
 C         9.1371160071       -5.2598062320      -11.8331271942
 C         8.3425507760       -4.1237453312      -12.6418514214
 O         8.4400875068       -4.0407179964      -13.8344413327
 C         7.4716255358       -3.1549585497      -11.8248389854
 C         6.2402724680       -2.6565511317      -12.7012272177
 O         6.4804001200       -2.2251060185      -13.7907563012
 C         4.8477800501       -2.4334688494      -12.0218123175
 C         3.7262381544       -2.7680870435      -13.0261879259
 C         3.2797911285       -4.2545237545      -13.4171723112
 O         3.6217030711       -4.8500070406      -14.3965319905
 C         2.0707511496       -4.8236928591      -12.4885538921
 C         0.8751148090       -3.9059407742      -12.4814701672
 O         0.8799161032       -2.7292972078      -12.1703390948
 C        -0.4857943368       -4.4276099120      -12.8943214417
 C        -1.7066694692       -3.4657262706      -12.5405599026
 C        -2.9868390871       -4.1877022579      -12.9106584212
 O        -2.9640549005       -5.4104450325      -12.9662912318
 C        -4.2835431310       -3.4561197774      -13.1118695495
 C        -5.3153766237       -3.6142895304      -11.8398082093
 O        -5.7992868012       -2.5325535374      -11.4911201141
 C        -5.5364836149       -4.9111091644      -11.1845452150
 C        -5.3037044451       -4.8521981251       -9.6251595821
 C        -6.4273750515       -4.2872405633       -8.6683306249
 O        -7.4356369762       -3.7183321556       -8.9959559820
 C        -6.1193659315       -4.6474568340       -7.1575099860
 C        -5.1830197518       -3.3819135671       -6.6310254719
 O        -3.9591391639       -3.5772651415       -6.6662021396
 C        -5.9991955024       -2.2078179166       -6.1760291441
 C        -5.1340322768       -1.3053863246       -5.2684500953
 C        -6.0851077956       -0.3055636577       -4.5059136951
 O        -7.0582065646       -0.8235052332       -3.9264241482
 C        -5.8645577365        1.2448948247       -4.4728789807
 C        -6.5146435063        1.8217946447       -5.7466982552
 O        -5.7851701721        2.3378452930       -6.6040362827
 C        -8.0050525605        1.7876247863       -6.1047953721
 C        -8.1971730318        1.9404837796       -7.5889947894
 C        -7.2604506094        1.1040431053       -8.4722369094
 O        -7.1855714908       -0.0778085929       -8.1775612781
 C        -6.6123802803        1.7268589390       -9.8545177662
 C        -7.6780591065        1.4778535230      -11.0138577258
 O        -8.0704331603        0.3248958221      -11.2848942145
 C        -8.3769880771        2.6601785290      -11.7450997957
 C        -9.1068596823        2.2642923505      -13.0146226974
 C       -10.2373408996        1.2756797587      -12.8801414421
 O       -11.0839818413        1.5140579758      -12.0138482964
 C       -10.4683498118        0.0001055478      -13.7263921188
 C       -10.3932337264       -1.1905276508      -12.5777847100
 O        -9.3332390444       -1.7836404342      -12.5193123746
 C       -11.5153748731       -1.3645029505      -11.4925765945
 C       -11.4728895296       -2.6524543865      -10.6261272127
 C       -10.5681007320       -2.3843094416       -9.4044067744
 O        -9.5070598960       -1.9053081312       -9.5014045216
 C       -10.9956007019       -2.8517738274       -7.8046169235
 C       -12.3939784221       -2.5652585375       -7.4008252160
 O       -13.2235386441       -2.8369196600       -8.2653158218
 C       -12.7900275083       -2.5079101864       -5.9023175839
 C       -13.8468203754       -1.3889047786       -5.8552822572
 C       -13.2159226613       -0.0886913634       -6.1677696736
 O       -12.0226350262        0.0505537704       -6.3011381996
 C       -14.1820986143        1.1769942666       -6.1423093213
 C       -14.0929421072        1.7475830303       -4.5918348932
 O       -14.9695500690        1.7114158977       -3.8075968150
 C       -12.7068753583        2.4969876796       -4.3045315674
 C       -12.3252143753        2.5413154489       -2.8819816545
 C       -10.8089446063        2.8281002808       -2.6982438528
 O        -9.9679093773        2.5927175559       -3.5548834683
 C       -10.3869813170        3.3416405141       -1.3418855209
 C       -11.4595456647        4.2992220190       -0.7398912387
 O       -12.2244753848        3.8333388821        0.1169414896
 C       -11.5120369384        5.6885353446       -1.2339138445
 C       -10.2613578873        2.0403042672       -0.3761366470
 C        -8.9549714876        3.8875019133       -1.3738899805
 C       -13.5786517099        2.1920952591       -7.1114974270
 C       -15.6757248002        0.8650853074       -6.5541823465
 C       -10.7723291801       -4.5091983439       -7.8109280427
 C        -9.9841857364       -2.1056452984       -6.8763641653
 C       -11.8967413629       -0.0833598863      -14.2746039072
 C        -9.4545810537       -0.1920815733      -14.8351204539
 C        -6.3558899868        3.2270268227       -9.6158337234
 C        -5.4008524439        0.9997129586      -10.3384779096
 C        -6.5727034076        1.7875123610       -3.1764757412
 C        -4.3027716379        1.7177575454       -4.4144303498
 C        -7.3807531161       -4.8408793720       -6.3731103691
 C        -5.3446397340       -6.0042311277       -7.0283473281
 C        -3.9848252762       -1.9653580268      -13.4573007146
 C        -5.1138251880       -3.9994570273      -14.3377446434
 C         1.8526827621       -6.2540478946      -12.8410392031
 C         2.5369138677       -4.8156949714      -10.9653539231
 C         6.9528844439       -3.9253999986      -10.6418370781
 C         8.2919424030       -1.7356498514      -11.4544308242
 C        12.7570863298       -5.7377122957      -14.4462098132
 C        13.3641215137       -3.3443426851      -13.9633884485
 C         6.4160910255       -2.7024385980      -18.4902452358
 C         8.5328011540       -3.0166340755      -19.8716550280
 H         7.7795831111       -0.1660818591      -19.9571292448
 H         9.4686497421       -0.5349816857      -19.7445353793
 H         8.7191333502        0.7446420639      -18.7199898020
 H        10.6206047466       -3.0929732446      -17.3539594257
 H        10.2393141008       -4.5224984662      -18.2213472730
 H        11.3591942343       -5.3859837271      -16.5881084054
 H         9.7023311401       -5.4114938051      -15.6936482504
 H        10.7310325124       -6.6460978181      -12.1414108417
 H        10.1089682874       -5.8674729510      -13.5718495874
 H         9.1647784617       -5.0376477843      -10.7730375857
 H         8.3477806429       -6.0257720483      -11.8716570036
 H         4.6762144550       -1.4678964298      -11.6564798721
 H         4.7237910069       -3.1230714052      -11.1117588891
 H         3.6992773607       -2.1221481591      -13.9902252147
 H         2.8030225330       -2.4281775842      -12.5287302887
 H        -0.7025916388       -5.3764561613      -12.3181182723
 H        -0.6371747908       -4.8479798174      -13.8727770350
 H        -1.6427952442       -2.4818879420      -13.0385256295
 H        -1.6623152683       -3.2290537435      -11.5107295253
 H        -4.9708794470       -5.7507798621      -11.6704653830
 H        -6.5403686291       -5.2724908865      -11.4336106882
 H        -4.3944882935       -4.2680017068       -9.4554288763
 H        -5.0019417206       -5.8450359176       -9.3060481839
 H        -6.9159871565       -2.5080079249       -5.6844817636
 H        -6.1579691878       -1.5818620162       -7.0744769966
 H        -4.2697745477       -0.9047969033       -5.8831246600
 H        -4.4884707383       -1.7909537853       -4.4875706452
 H        -8.4664695604        2.7017223470       -5.6253513151
 H        -8.4199835122        0.8667706625       -5.6812327451
 H        -8.2367480549        2.9637607725       -7.8713191100
 H        -9.2454350295        1.6261544289       -7.7948071189
 H        -7.5582109543        3.3724029076      -11.9239425591
 H        -8.9299776419        3.0565970167      -10.9629440561
 H        -8.3798374072        2.0556756376      -13.7763856281
 H        -9.5423774101        3.2395920242      -13.4310990255
 H       -12.4591860475       -1.2615661415      -11.9241176301
 H       -11.6502268790       -0.5165517243      -10.8133542826
 H       -11.0536313511       -3.4086081117      -11.3180765695
 H       -12.5084708080       -2.9633773513      -10.3864535584
 H       -11.9416487646       -2.2894565967       -5.2056023413
 H       -13.1231720394       -3.5419861021       -5.5240521600
 H       -14.4232195166       -1.2820569584       -4.8826756692
 H       -14.4788202995       -1.6292126479       -6.6933561508
 H       -12.8894907612        3.4886853972       -4.6590742894
 H       -11.9582007144        1.9326342795       -4.8437545774
 H       -12.2438140836        1.5450893835       -2.4620301445
 H       -13.0739436414        2.9898024765       -2.2389707953
 H       -12.1232955137        6.2633676297       -0.5394272014
 H       -11.9829216005        5.7254136108       -2.1814041649
 H       -10.5162457229        6.1341978671       -1.4415669724
 H        -9.6919357347        1.2745656997       -0.8154993255
 H       -11.2102916263        1.6372035347       -0.1020523297
 H        -9.7780438632        2.3625732113        0.5213301892
 H        -8.2856985181        3.2055300080       -0.8131185767
 H        -8.8421550340        4.9370119643       -0.9740569345
 H        -8.5563110014        3.8923777780       -2.3901480179
 H       -13.8077900371        1.8959066898       -8.1598862020
 H       -12.5449577053        2.3146340620       -6.9643148235
 H       -14.0495723432        3.2047920476       -6.9705867187
 H       -16.1774201111        0.7520053187       -5.5695589819
 H       -15.6810782217       -0.0754148271       -7.2511945490
 H       -16.1899770871        1.7558529465       -6.9607607536
 H       -11.5224547185       -5.0667971267       -8.3906870360
 H       -11.0512475810       -4.7700068409       -6.7927744758
 H        -9.7322717556       -4.6930996533       -8.0553422927
 H       -10.1095757152       -2.6132096567       -5.8605004763
 H       -10.3171008064       -1.0671356919       -6.8387051909
 H        -8.9171601109       -2.3181868306       -7.1338937049
 H       -12.0222332255        0.5814199644      -15.0862858374
 H       -12.5785095106        0.2184305702      -13.4826790367
 H       -12.0929351340       -1.0609509090      -14.6613042025
 H        -8.5100000447       -0.1845364556      -14.3751114627
 H        -9.6608189399        0.7613017346      -15.4270838631
 H        -9.5974641247       -1.0369900829      -15.4148069728
 H        -5.6774441004        3.6780536778      -10.3865673902
 H        -5.7523120444        3.2751588290       -8.7302229753
 H        -7.2702850642        3.8129417901       -9.4041404128
 H        -5.4097868438       -0.1042249754      -10.3267905305
 H        -4.3818615258        1.2623953398       -9.9161702475
 H        -5.2862491575        1.0437709912      -11.4452250013
 H        -6.4375609120        2.9507616423       -3.2128365500
 H        -6.2149184044        1.3234377145       -2.2134751979
 H        -7.6083356106        1.6967738203       -3.3248565389
 H        -4.1291139949        2.8233633500       -4.6310832713
 H        -3.8256762569        1.1214221117       -5.1972055323
 H        -3.8686251457        1.3085414042       -3.4165584530
 H        -7.1398890987       -5.3848572776       -5.4099535665
 H        -8.2123778742       -5.3408713602       -6.8946365963
 H        -7.6839497671       -3.8360181316       -6.1784553414
 H        -4.3132531194       -5.7485521948       -7.2486729526
 H        -5.7031034530       -6.7006706449       -7.7231506779
 H        -5.5258756629       -6.3467380927       -5.9952716113
 H        -3.4092078243       -2.0004564739      -14.3791032356
 H        -3.4322088974       -1.4978081350      -12.6269737948
 H        -4.9106806156       -1.3463221747      -13.5570944182
 H        -5.9529722580       -3.2855895287      -14.3275066675
 H        -5.4046898258       -4.9728467628      -13.9978609611
 H        -4.7170572590       -4.1897472034      -15.3926212348
 H         1.2447214109       -6.5021917076      -13.7716908346
 H         1.2936622882       -6.7940308135      -12.0250458278
 H         2.8554583078       -6.7297523002      -12.9673219591
 H         3.5659260564       -5.1451668486      -10.9800957221
 H         1.9918470442       -5.5154617807      -10.3667295863
 H         2.5286248715       -3.8664285621      -10.4152211434
 H         6.8339392546       -5.0407262767      -10.8371231487
 H         6.0441175536       -3.6135359034      -10.2380134847
 H         7.7336260822       -3.8338267480       -9.8799973403
 H         9.3381670948       -1.9098213014      -11.0438351855
 H         7.7071738825       -1.3597510830      -10.6880728151
 H         8.4379183382       -1.0500417390      -12.2790638936
 H        12.2186382862       -6.5670578835      -14.0378124150
 H        13.7525187124       -6.0523138498      -14.0149582007
 H        12.6353541272       -5.7933987276      -15.5406060150
 H        13.2553615742       -2.6972422193      -14.7619139421
 H        14.2139469216       -3.9809500925      -14.1370903893
 H        13.2979619325       -2.8799837812      -12.8973901466
 H         6.0285747253       -2.8166150492      -19.4905757632
 H         5.8785761945       -1.9022371183      -18.0364583633
 H         6.1221962297       -3.6378320185      -17.9835803804
 H         9.6351505837       -2.8708114694      -19.8307451416
 H         8.0640185286       -2.4243254746      -20.6331382977
 H         8.2788076603       -3.9797983088      -20.2353265451
 Na        8.4129404404       -2.1360899583      -14.9620900649
 Na       -7.6173422661       -1.6108999239      -10.3251852128
