232

 C         8.3441673517       -0.1628996591      -19.3011996906
 C         8.3696179125       -1.1546570853      -18.1464251359
 O         8.6320175877       -0.8729718409      -17.0176659081
 C         7.9689176840       -2.7157890812      -18.4686412567
 C         8.5705445499       -3.6291327847      -17.3026149666
 O         7.8842814757       -4.0997332741      -16.4334877312
 C        10.1101459792       -4.0301067198      -17.3392683517
 C        10.4358540914       -4.7625338097      -16.0167887956
 C        11.0744185180       -3.8199758110      -14.9691213641
 O        10.5175023958       -2.7487513896      -14.7701350793
 C        12.2992664369       -4.3806955207      -14.0691738505
 C        11.5106682294       -4.5865949682      -12.6631751577
 O        11.6618805503       -3.9190592089      -11.6588409003
 C        10.3355094792       -5.6644600709      -12.6738578393
 C         9.1490601190       -5.1832601848      -11.8719744731
 C         8.3430153753       -4.0745500166      -12.5663470883
 O         8.4393542672       -4.1264475796      -13.7831338400
 C         7.4295105908       -3.1151866954      -11.7033295272
 C         6.2322638042       -2.6554411762      -12.5992141046
 O         6.4014932644       -2.1828981328      -13.7696800033
 C         4.8625420859       -2.4850105017      -12.0667457004
 C         3.7322891046       -2.7304114863      -13.1097821723
 C         3.2382245247       -4.1645597787      -13.3644634449
 O         3.6247848040       -4.7451136476      -14.3748099914
 C         2.2007676895       -4.8896394924      -12.4705327487
 C         0.9070216522       -3.8164825816      -12.4792047214
 O         1.0439008943       -2.6881663898      -12.0562789475
 C        -0.4917753853       -4.4140290495      -12.9349290289
 C        -1.6844480409       -3.4516446112      -12.7108336904
 C        -3.0153740823       -4.2508325312      -12.9137626603
 O        -2.9799644123       -5.4474900557      -12.7949723034
 C        -4.3685120682       -3.3768889689      -13.1748682652
 C        -5.2150230925       -3.4799681225      -11.8261385100
 O        -5.8127488050       -2.5249081514      -11.4271230620
 C        -5.3538739048       -4.8120912432      -11.2249991318
 C        -5.2049060860       -4.8240769224       -9.6627842970
 C        -6.3347837102       -4.4194320402       -8.7139438197
 O        -7.3588700160       -3.7958489555       -9.0249148619
 C        -6.0885378294       -4.7566547020       -7.1909981684
 C        -5.1859997295       -3.4908469295       -6.6261115653
 O        -3.9961200343       -3.5835003989       -6.5953478150
 C        -5.9061221237       -2.2346224789       -6.2326418641
 C        -5.1080345630       -1.1792547016       -5.3630140166
 C        -6.1156530615       -0.2514306146       -4.5819241097
 O        -7.0982102062       -0.7143623177       -4.0566326666
 C        -5.8199796136        1.2823468710       -4.4718261297
 C        -6.3174838030        1.9328865552       -5.8019121562
 O        -5.6444743547        2.3179473536       -6.7523821716
 C        -7.9143117599        1.7139416560       -6.0432885293
 C        -8.2195689435        1.9926146319       -7.5224857639
 C        -7.3984307730        1.1048122725       -8.5000502595
 O        -7.0947137265       -0.1152837864       -8.3108451117
 C        -6.7265949251        1.7626200323       -9.8584189848
 C        -7.8377450870        1.6123219097      -10.9701437198
 O        -8.1336898657        0.5068277333      -11.2699215220
 C        -8.3073740160        2.7988512963      -11.9257638549
 C        -9.0680115188        2.2176541954      -13.1262869305
 C       -10.3280628161        1.2906462884      -12.7484684107
 O       -11.0950464979        1.5478864711      -11.8834207878
 C       -10.5020395620       -0.0378644102      -13.6292431345
 C       -10.3370844583       -1.2348864710      -12.5291510784
 O        -9.2535337967       -1.7662214020      -12.4367490322
 C       -11.4366074939       -1.4668090266      -11.5575749275
 C       -11.2604109385       -2.8158790249      -10.6815717032
 C       -10.5970245238       -2.5529138633       -9.3404920130
 O        -9.5916077993       -1.8253329946       -9.4670223989
 C       -10.8917988339       -2.9373062418       -7.8600123590
 C       -12.4608277528       -2.7920908686       -7.4226452744
 O       -13.3560452888       -2.6443713484       -8.2093935299
 C       -12.8816671626       -2.5901847582       -5.9777885587
 C       -13.9718342305       -1.4750836580       -5.7327922974
 C       -13.3692164276       -0.0616814778       -6.0676330553
 O       -12.1640425297        0.0820031098       -6.2905378904
 C       -14.2379686322        1.2294588207       -6.0444847815
 C       -14.0775852390        1.8429309147       -4.6126056894
 O       -14.9880868309        1.7733256944       -3.7802484473
 C       -12.7340842692        2.5090165284       -4.2882265670
 C       -12.2743828758        2.5332806905       -2.8481151070
 C       -10.7225980642        2.7525701587       -2.6917720468
 O        -9.9976814875        2.7262243629       -3.6885556824
 C       -10.2939532545        3.2226618927       -1.3230451088
 C       -11.4336670058        4.2772634763       -0.7083962215
 O       -12.1160583672        3.8894242110        0.2384939658
 C       -11.6202635243        5.6293055896       -1.3570262162
 C       -10.3150201393        1.9456165519       -0.4397520498
 C        -8.8849255517        3.8909021816       -1.4076751407
 C       -13.6360890302        2.2579910371       -7.0448716556
 C       -15.7637290041        0.8749580192       -6.4282238234
 C       -10.6680818856       -4.4608889758       -7.7956063916
 C        -9.9339673737       -2.1755981409       -6.9230454451
 C       -11.9999131688       -0.0033715844      -14.1721084780
 C        -9.4251389219       -0.0930643855      -14.7518483222
 C        -6.3384561006        3.2279531810       -9.6620386324
 C        -5.4853326927        0.9096997031      -10.2073383372
 C        -6.5465982637        1.6537172111       -3.1555819337
 C        -4.3150734005        1.5450718453       -4.1993446254
 C        -7.4800650496       -4.9279161971       -6.4248045541
 C        -5.2883879062       -6.0419432822       -7.0454710808
 C        -4.1185417100       -1.8598127356      -13.2620916953
 C        -4.9892284092       -4.1274550535      -14.3755009352
 C         1.7669002971       -6.3245844698      -12.8857241328
 C         2.7073557150       -4.7791423567      -10.9943485594
 C         6.9701468054       -3.8238297558      -10.4104650549
 C         8.0501668263       -1.7556349604      -11.5339879868
 C        12.8144874448       -5.7938243183      -14.5440543240
 C        13.3360056125       -3.2807640788      -13.9470668928
 C         6.3975731044       -2.7812079197      -18.3550516886
 C         8.4737301938       -3.0464652786      -19.9021042636
 H         7.3362321375       -0.4128079511      -19.7718076061
 H         9.0915617739       -0.3467332308      -20.0119642574
 H         8.3240845585        0.8282612585      -18.9066558777
 H        10.8128461538       -3.2153562946      -17.4004652000
 H        10.3330119377       -4.6139648447      -18.2316489761
 H        11.0159219049       -5.6780636223      -16.2287070112
 H         9.4577614148       -4.9736710574      -15.6300521187
 H        10.6811173347       -6.5328581696      -12.1461754030
 H        10.1204734211       -6.0068403015      -13.6754898629
 H         9.4306677705       -4.7787295232      -10.8861934542
 H         8.3712879816       -5.9437352947      -11.6063482265
 H         4.7075126239       -1.4551298299      -11.8177008089
 H         4.7443307911       -2.9033391611      -11.0847969117
 H         4.1009243019       -2.4258396491      -14.0653605045
 H         2.9275237237       -2.0220114865      -12.9584877752
 H        -0.6797172537       -5.4202444493      -12.4660772545
 H        -0.5664155261       -4.7487399042      -13.9957421295
 H        -1.5262744678       -2.5866931825      -13.3405395430
 H        -1.6244016067       -2.9526723402      -11.7176701699
 H        -4.6691442135       -5.5295806089      -11.6427325939
 H        -6.2251484500       -5.2724160461      -11.5736279003
 H        -4.3425670515       -4.2113319503       -9.4315101093
 H        -4.8725074389       -5.8010236181       -9.3769112825
 H        -6.7734620465       -2.5199796687       -5.5521662012
 H        -6.2311585939       -1.7627183669       -7.1192026819
 H        -4.2774909131       -0.6552407348       -5.8529527984
 H        -4.4681724621       -1.6294847583       -4.5067815818
 H        -8.5240439005        2.4528028075       -5.4068496015
 H        -8.1670450311        0.6219895047       -5.7664899094
 H        -8.0440370903        3.0894485398       -7.8267739014
 H        -9.2867223541        1.8817159206       -7.6519375467
 H        -7.4678917750        3.4505365937      -12.0380618174
 H        -8.9825217732        3.3307744341      -11.2423390178
 H        -8.3310727161        1.6984105599      -13.7905588355
 H        -9.4498590114        2.9957681469      -13.7899745592
 H       -12.4622602309       -1.2724308924      -11.8377444223
 H       -11.4005886235       -0.6102639628      -10.8505514510
 H       -10.6802003500       -3.4308167761      -11.3700242786
 H       -12.2986118152       -3.2694568215      -10.6009152026
 H       -12.0430878019       -2.4345488286       -5.2004869333
 H       -13.2937619766       -3.5351924158       -5.5827456873
 H       -14.1840673970       -1.5861057275       -4.6488991055
 H       -14.8304682756       -1.8173915133       -6.3672385998
 H       -12.9304300162        3.5625190521       -4.5375782846
 H       -12.0210507641        2.0070756690       -4.9275566364
 H       -12.4997233176        1.7905088038       -2.0973054379
 H       -12.8269998888        3.4071105642       -2.3699136264
 H       -11.8834276639        6.2716744938       -0.5722053473
 H       -12.4525945307        5.6353662494       -2.0277957728
 H       -10.7904996618        5.9936346029       -1.9729061521
 H        -9.5871469671        1.2464306421       -0.8090221101
 H       -11.2422737823        1.4661863966       -0.3754906800
 H        -9.9958314718        2.2216345023        0.5668204459
 H        -8.1710353772        3.6068726592       -0.6236292370
 H        -9.0235628836        5.0195208362       -1.4472787452
 H        -8.3678943795        3.6270766719       -2.3566782451
 H       -14.1523257358        2.2961899438       -7.9311488215
 H       -12.5767723763        2.0816597275       -7.2825087990
 H       -13.7295849947        3.2731910818       -6.5869608228
 H       -16.2886897711        0.5913505329       -5.4769497314
 H       -15.6394359962        0.0489591461       -7.1576967822
 H       -16.3458343473        1.7414680207       -6.7649185866
 H       -11.3614624154       -4.8982997047       -8.5220860528
 H       -11.1179490440       -4.8433548318       -6.7872288325
 H        -9.6147581205       -4.7035834184       -8.0243268146
 H        -9.9362674712       -2.7876246949       -6.0029861499
 H       -10.4488695540       -1.2429792454       -6.7365224658
 H        -8.9178942057       -2.0970756065       -7.2349018449
 H       -12.1583290549        0.8535648213      -14.9093289575
 H       -12.6064336371        0.2607836665      -13.3270841317
 H       -12.3021037322       -0.8709425787      -14.7054165159
 H        -8.4117532273        0.0013462683      -14.3931428599
 H        -9.7217975573        0.6307988109      -15.4246092657
 H        -9.6389708364       -1.0556064779      -15.2135307412
 H        -5.8369085802        3.5909952551      -10.5026693306
 H        -5.6304865922        3.4039733607       -8.9303568522
 H        -7.2545497270        3.7764975034       -9.4756351121
 H        -5.4178028432       -0.1849447151      -10.2338610159
 H        -4.6289496354        1.2656993328       -9.5938343897
 H        -5.1218714430        1.0272272387      -11.2533061897
 H        -6.2934251246        2.7004345273       -2.8810792990
 H        -5.9914398570        0.9115250355       -2.3731884377
 H        -7.7607857365        1.5740151253       -3.2102450415
 H        -4.2193978190        2.6386451362       -4.0374322282
 H        -3.8188164781        1.3044557084       -5.1972762124
 H        -3.8603478781        0.9223961789       -3.4018669117
 H        -7.2280587494       -5.4586727908       -5.5300145917
 H        -8.0887903480       -5.6112203980       -6.9983322804
 H        -8.0967080051       -3.9451322379       -6.2350627332
 H        -4.3520925595       -5.8316105073       -7.5367746606
 H        -5.7975895346       -6.7579837871       -7.6330822598
 H        -5.2533906633       -6.3405830234       -5.9741585306
 H        -3.3587990756       -1.6380777032      -14.0711218497
 H        -3.8113978886       -1.5511342567      -12.3160330193
 H        -5.0690100454       -1.3331112118      -13.4667831121
 H        -5.9070467756       -3.5866744808      -14.7220532959
 H        -5.1602053843       -5.1723236417      -13.9219021346
 H        -4.3607635215       -4.4001169310      -15.2330820962
 H         0.9389728492       -6.4247334018      -13.6317527791
 H         1.4697370921       -6.9724924742      -12.0237671800
 H         2.6724945865       -6.8071057346      -13.3856479943
 H         3.7447890259       -5.1534942235      -10.8700739102
 H         2.0439808323       -5.3063185793      -10.3199255996
 H         2.6827172159       -3.7506677641      -10.5933119683
 H         6.6876982864       -4.9056266365      -10.6780214858
 H         6.0496877884       -3.4393860334       -9.9300160628
 H         7.7373813363       -3.8419866900       -9.6589120910
 H         8.9409867081       -1.8116332195      -10.8430860609
 H         7.2896757567       -1.0407669468      -11.1127514312
 H         8.5015045297       -1.4296357400      -12.4404438233
 H        12.1744974650       -6.6815387885      -14.1907094937
 H        13.6795842571       -6.0101104478      -13.9680298829
 H        12.9539761472       -5.9171774621      -15.6334309193
 H        13.3266333214       -2.7111847304      -14.9008620640
 H        14.3854151931       -3.6407820458      -13.7248445172
 H        12.8145444785       -2.7501713145      -13.2346680598
 H         5.9022106810       -2.8649145862      -19.2406068286
 H         5.9439025387       -2.0849555999      -17.7218490880
 H         6.2194854692       -3.7364489587      -17.8807179087
 H         9.5858520384       -2.9682471489      -19.7835099817
 H         8.0889207631       -2.3998550807      -20.7099754661
 H         8.1391058993       -4.0144403409      -20.3825340393
 Na        8.4624899587       -2.1213267001      -15.0906865464
 Na       -7.7037877569       -1.7153443518      -10.3996050265
