232

 C         8.0619961114       -0.2236415578      -19.2844594211
 C         8.2846952465       -1.2747701148      -18.1604781420
 O         8.5248142733       -0.8301454050      -17.0173321525
 C         7.9863561738       -2.7517321047      -18.4572505208
 C         8.6840248411       -3.6708570956      -17.4642925983
 O         7.9369508757       -4.0222304211      -16.5425829651
 C        10.1187715124       -4.0475382055      -17.4012154909
 C        10.3899373017       -4.7675670003      -16.0420529657
 C        11.0831674209       -3.8391698907      -15.0083680496
 O        10.7827385926       -2.6515220615      -14.8632445514
 C        12.1347383160       -4.3208719169      -14.1294507344
 C        11.4640413063       -4.7021174192      -12.8199001240
 O        11.7753972479       -4.0147790493      -11.8261311028
 C        10.3543205924       -5.7040043180      -12.6522862619
 C         9.2787566272       -5.2150860487      -11.6831514846
 C         8.3125096973       -4.1266775183      -12.4844718226
 O         8.3328901615       -4.0512792452      -13.6917509985
 C         7.3341135607       -3.1411627270      -11.7235770971
 C         6.1352292762       -2.6462767307      -12.6767632784
 O         6.4365354463       -2.2067852239      -13.7786012436
 C         4.6999120083       -2.5392286570      -12.1229563909
 C         3.6647649032       -2.6235425036      -13.2489781145
 C         3.2547725718       -4.0934447510      -13.4402573297
 O         3.6289101683       -4.7553399534      -14.3742099523
 C         2.1610099134       -4.7871108448      -12.3733322789
 C         0.8666894247       -3.8794858043      -12.3695839571
 O         1.1013345731       -2.7257373028      -12.0007772008
 C        -0.3899111426       -4.3620106898      -12.9293271735
 C        -1.5540409508       -3.4353621972      -12.9274760630
 C        -2.9121582884       -4.1411723580      -12.7757306363
 O        -3.1014004648       -5.3493323491      -12.7138825893
 C        -4.2987704448       -3.3529877248      -13.0291044667
 C        -5.2780406732       -3.4896125890      -11.8782189290
 O        -5.7288223292       -2.4499230064      -11.4351152380
 C        -5.4532080669       -4.8809263997      -11.1126641789
 C        -5.0593540305       -4.8092136702       -9.6030810168
 C        -6.2190014141       -4.4654582682       -8.7261527205
 O        -7.2401454399       -3.8770748962       -9.1373156236
 C        -5.9974258166       -4.8421504798       -7.2371822650
 C        -5.2228533635       -3.5864139436       -6.5701274844
 O        -4.0332411409       -3.6681395135       -6.5692225219
 C        -5.9762114795       -2.2328559254       -6.2075041640
 C        -5.1499297329       -1.1823220877       -5.5001818983
 C        -6.0423660958       -0.2938312032       -4.6547123384
 O        -7.1072303250       -0.6975828661       -4.2872602685
 C        -5.7329816664        1.2620901942       -4.4573028607
 C        -6.2433820818        1.8514476765       -5.8072618899
 O        -5.4808294133        2.2445879667       -6.6137033247
 C        -7.7614656115        1.6449201845       -6.0900006856
 C        -8.1424837950        1.9621401739       -7.5675214573
 C        -7.3697540715        1.1748517165       -8.5479476594
 O        -7.2492022044       -0.0327825864       -8.4199826092
 C        -6.8607897599        1.8938587269       -9.8501763070
 C        -7.8418157877        1.6179614014      -11.0333576144
 O        -8.3019128638        0.5560478589      -11.3196971730
 C        -8.3445232914        2.8213127045      -11.9211999303
 C        -9.1193831515        2.2149803689      -13.0474549175
 C       -10.2553869982        1.3186780388      -12.6493755588
 O       -11.0121117341        1.6716634045      -11.7670695952
 C       -10.5483453388       -0.0639219794      -13.4549611835
 C       -10.2095216307       -1.1996448428      -12.4045385557
 O        -9.1367531246       -1.8153884499      -12.4743132542
 C       -11.3856484456       -1.6396604570      -11.5395424526
 C       -11.1820702757       -2.9216787841      -10.6264928573
 C       -10.6128344680       -2.4475456980       -9.2909735090
 O        -9.6636265986       -1.6341604692       -9.3436939201
 C       -11.0360239218       -3.0410714549       -7.8766593410
 C       -12.5925579121       -2.6798197016       -7.5025576164
 O       -13.4085234869       -2.5399094857       -8.4016901982
 C       -12.9037989289       -2.6128723791       -5.9361919860
 C       -13.9552372575       -1.5209857912       -5.6161431084
 C       -13.4364064567       -0.0520144831       -6.0001196799
 O       -12.2494264088        0.0309221451       -6.2736330138
 C       -14.2805675290        1.2326551022       -5.9856962194
 C       -14.1251707445        1.8749670858       -4.5644106407
 O       -15.0074533926        1.7917868892       -3.7374333471
 C       -12.7163858874        2.5361678889       -4.3966137128
 C       -12.3346214009        2.4827776908       -2.9284395836
 C       -10.8157748933        2.8974825293       -2.7788574965
 O       -10.0873970267        2.8155062201       -3.7394895689
 C       -10.2393563136        3.1957126443       -1.2547900040
 C       -11.2795343813        4.2106774985       -0.6338647736
 O       -11.9377214835        3.9439102936        0.3038585146
 C       -11.6668772853        5.5026328140       -1.4547656914
 C       -10.2817645908        1.9068836754       -0.4452274763
 C        -8.8864482737        3.9212706776       -1.3551525288
 C       -13.8064573815        2.2967773287       -7.0622282147
 C       -15.7835769094        0.9603912133       -6.2099980971
 C       -10.6373189753       -4.5710655259       -7.8108582672
 C       -10.0262513835       -2.3449737692       -6.9135875943
 C       -11.9610729560        0.0857484329      -14.0436570570
 C        -9.5771757683       -0.2494239464      -14.6870037848
 C        -6.3499664878        3.3033602408       -9.6659071750
 C        -5.6218134849        0.9691419738      -10.1321840713
 C        -6.6046742790        1.7193904324       -3.1856391437
 C        -4.2303850671        1.4169965945       -4.1691955309
 C        -7.4648419614       -4.9411121499       -6.5421963726
 C        -5.1378409313       -6.1220741207       -6.9513528561
 C        -4.1522678020       -1.8219157367      -13.3535790518
 C        -4.9213883908       -4.1289515195      -14.3068300042
 C         1.8575851837       -6.1505323686      -12.8920510960
 C         2.7827200699       -4.8281525594      -10.9996345316
 C         7.0732195224       -3.6729663115      -10.2758650924
 C         8.0556359445       -1.7773181971      -11.4522896245
 C        12.8985241667       -5.6367543197      -14.5746321584
 C        13.2841379423       -3.2365129117      -13.8930527514
 C         6.4501246361       -2.8429443837      -18.2800919122
 C         8.3969938920       -3.1659325931      -19.8322469584
 H         7.0831059769       -0.3539713986      -19.6898026779
 H         8.8432390348       -0.2690370755      -20.0598657768
 H         8.1097559610        0.7547740865      -18.7270413303
 H        10.7960642215       -3.2088670172      -17.5462828129
 H        10.3555490305       -4.6900938305      -18.2436374819
 H        11.0668175010       -5.5550950514      -16.2601230944
 H         9.4423818655       -5.1444284486      -15.7832801342
 H        10.7793761053       -6.6148674414      -12.2951611423
 H         9.9681838698       -5.9326307424      -13.6486611534
 H         9.6845442666       -4.5648749318      -10.8820469376
 H         8.6637242535       -5.9636291433      -11.1759005943
 H         4.5174249745       -1.5728848268      -11.5506777305
 H         4.6013705609       -3.1555316296      -11.2999024949
 H         4.1303628000       -2.3260383247      -14.1226876675
 H         2.8598578831       -1.9161780547      -13.2297512197
 H        -0.6110007981       -5.3670565231      -12.6241096228
 H        -0.1682784618       -4.6050713191      -14.0129431913
 H        -1.4834183086       -2.7152447483      -13.7533659575
 H        -1.4522196000       -2.6617711352      -12.0907771224
 H        -4.8599026054       -5.6043302917      -11.5774188837
 H        -6.3716326157       -5.4322164340      -11.1648143549
 H        -4.1721226922       -4.2055973581       -9.4385964405
 H        -4.7421357756       -5.8007798037       -9.2893411858
 H        -6.7519411091       -2.3954827232       -5.4443977114
 H        -6.3742830269       -1.8168994317       -7.1399533578
 H        -4.5937615025       -0.4914710812       -6.1115775084
 H        -4.3316136439       -1.5655473068       -4.8995133057
 H        -8.3233640380        2.2699795919       -5.3928756548
 H        -7.9514965145        0.5547216050       -5.8758434672
 H        -8.2007322162        3.0474526382       -7.8735378782
 H        -9.1822215714        1.5862637186       -7.6549669488
 H        -7.4234791231        3.3384722631      -12.1989990562
 H        -8.9033429076        3.5946720451      -11.2631414714
 H        -8.3944395813        1.5830222984      -13.6108344923
 H        -9.4771963882        2.9272877211      -13.7583229341
 H       -12.3473989150       -1.7170673119      -12.1479537693
 H       -11.7899834451       -0.8439282355      -10.9071749729
 H       -10.5324051958       -3.5580019879      -11.2543940825
 H       -12.1582085955       -3.3791717696      -10.5349201609
 H       -12.0527319158       -2.5466397178       -5.2824261513
 H       -13.3252553152       -3.5404988839       -5.6251270855
 H       -14.2018076087       -1.6632615441       -4.5882845264
 H       -14.7763381949       -1.8892208196       -6.2844823235
 H       -12.6878029930        3.5503108270       -4.8425070784
 H       -12.0679995551        1.7949565193       -4.8824100133
 H       -12.4211853090        1.5305792212       -2.3416438423
 H       -12.9523184587        3.1093787804       -2.2568611867
 H       -11.5762420959        6.3450220905       -0.7806197513
 H       -12.7417228662        5.5055672536       -1.7528962904
 H       -11.1558156001        5.6511793066       -2.3622485628
 H        -9.4413427450        1.2419614943       -0.7408041793
 H       -11.2288559038        1.3609696375       -0.6060345028
 H       -10.1989245663        2.0837429625        0.6220392443
 H        -8.3785170248        3.9972794564       -0.3875188534
 H        -9.0149200303        4.8775045423       -1.8268840770
 H        -8.1498475317        3.3476603425       -1.9676248362
 H       -14.4114843008        2.4022830399       -7.9541940687
 H       -12.8072057783        1.9148334323       -7.4203638784
 H       -13.6933836952        3.2445567797       -6.6460333741
 H       -16.2057098259        0.4120834017       -5.3808251257
 H       -15.7972523182        0.4755570274       -7.1053620247
 H       -16.3126108203        1.9119098043       -6.1749895015
 H       -11.2834926291       -5.1409009759       -8.5117589492
 H       -10.7398283570       -5.0194886920       -6.8120832346
 H        -9.6073033964       -4.5356272635       -8.2520984743
 H        -9.8129197674       -2.8399127612       -6.0353627046
 H       -10.4375255146       -1.3551615123       -6.7789853015
 H        -9.1037393056       -2.2665330158       -7.4445149181
 H       -11.9480040092        0.9101056141      -14.7907899824
 H       -12.7624647274        0.3482043318      -13.3374222790
 H       -12.1470290350       -0.8022522104      -14.7015612487
 H        -8.5867957797       -0.5349151575      -14.2662529632
 H        -9.5706729007        0.5635329751      -15.3508987880
 H       -10.1121446085       -1.1002975207      -15.1566578373
 H        -5.7531911001        3.5261740210      -10.5162246624
 H        -5.5304321574        3.4276317719       -8.9430343364
 H        -7.0741543076        4.0293852437       -9.5868518516
 H        -5.8011092240       -0.0771417370      -10.3524441045
 H        -4.9532413205        1.0156344310       -9.3198680041
 H        -4.9866124014        1.1677611356      -10.9892381324
 H        -6.3508559062        2.7501656843       -2.8270110463
 H        -6.2775876543        1.0262891416       -2.4255998749
 H        -7.6995539386        1.6516358565       -3.4342764197
 H        -4.2286638492        2.3255060615       -3.6166281327
 H        -3.6208814170        1.5418287480       -5.0958155156
 H        -3.8495249862        0.6291647606       -3.5759534872
 H        -7.3305066197       -5.1062731027       -5.4970620254
 H        -7.7202403434       -5.9839943086       -6.8259537221
 H        -8.2198450937       -4.2629330909       -6.8313230162
 H        -4.2067200665       -6.0894319071       -7.4825187003
 H        -5.7819958026       -6.9449316219       -7.3829857245
 H        -5.1048494737       -6.1999805583       -5.9044838427
 H        -3.5270112434       -1.5897125638      -14.2012126908
 H        -3.9073512777       -1.2577393953      -12.4447811678
 H        -5.1428985476       -1.5587398146      -13.6291278185
 H        -5.8123510776       -3.5724758088      -14.6782704896
 H        -4.9620920323       -5.2449057301      -14.2745959692
 H        -4.1400356087       -3.9968603077      -15.0408821351
 H         1.1236084704       -6.1734343610      -13.6822851891
 H         1.5801614184       -6.9066989821      -12.1557406922
 H         2.7610025117       -6.4937087221      -13.4001713026
 H         3.7305060858       -5.3982444498      -11.0303792425
 H         2.0680574148       -5.2911297485      -10.2706504258
 H         2.9385119654       -3.8707136946      -10.5180285069
 H         6.3662281671       -4.4368250249      -10.1730980749
 H         6.6239172189       -2.8297247408       -9.6357834359
 H         8.0285240221       -3.9543419769       -9.7865641244
 H         8.6659898517       -1.9413090975      -10.6116122211
 H         7.3724204540       -0.8655008930      -11.2827371696
 H         8.8599644212       -1.6066183712      -12.2213947003
 H        12.4119569380       -6.6167133660      -14.8243310513
 H        13.5278421708       -5.8243613398      -13.7210238201
 H        13.5540050474       -5.4126017418      -15.4124483190
 H        13.7204330811       -3.1209499266      -14.9506954959
 H        14.0265455760       -3.6599611178      -13.2482328875
 H        12.7463289208       -2.3664801123      -13.6074494540
 H         5.9076948713       -2.6068733990      -19.2144507000
 H         6.1199471265       -2.2464369857      -17.4212580357
 H         6.1190547966       -3.7947707101      -18.0714580243
 H         9.4758080432       -3.1834390677      -19.9637567229
 H         7.8558463661       -2.7385211733      -20.7277503212
 H         7.9272967075       -4.1955836536      -19.9545671974
 Na        8.3712036288       -2.0837306889      -15.1676384683
 Na       -7.7212186539       -1.7925136707      -10.4758123635
