232

 C         7.7752133409       -0.2289063990      -19.3633386499
 C         8.1516349657       -1.2746950204      -18.3177296279
 O         8.3239828908       -0.8829937881      -17.2050376935
 C         7.7731968259       -2.7825524829      -18.5048678352
 C         8.5260939738       -3.6560044949      -17.4163212546
 O         7.9414751769       -4.0534873396      -16.4561058686
 C        10.0114111575       -4.0408404501      -17.5902245109
 C        10.6810495427       -4.7644662246      -16.3538223563
 C        11.1940744106       -3.8098395745      -15.3007374411
 O        10.7613660382       -2.6612062490      -15.2674254293
 C        12.3299226155       -4.2893317985      -14.1941485332
 C        11.4896756723       -4.6270782368      -12.7126060893
 O        11.8902271977       -4.1672960131      -11.6817507920
 C        10.2653225022       -5.6045953121      -12.5494644232
 C         9.2301929862       -5.0483092647      -11.5278946300
 C         8.3210207374       -4.0285375201      -12.3837091419
 O         8.4009925567       -4.0476721889      -13.6002423410
 C         7.3919071640       -2.9075610113      -11.6488922598
 C         6.2372455739       -2.5651278184      -12.5967440069
 O         6.5089196481       -2.2623024174      -13.7769109995
 C         4.7854529690       -2.5312075256      -12.0765772051
 C         3.7590623881       -2.6932549770      -13.1592024598
 C         3.2717999063       -4.1328036143      -13.3994462261
 O         3.6337900335       -4.6354460187      -14.4603980582
 C         2.1767026045       -4.7369116178      -12.4398061906
 C         0.9510011971       -3.8134310382      -12.3589198912
 O         0.9134477719       -2.7492751801      -11.7468195669
 C        -0.3610858261       -4.3601421494      -13.0237451752
 C        -1.4597949808       -3.2626934198      -13.0966652249
 C        -2.8154617212       -4.0857729415      -12.8167166634
 O        -2.7606383817       -5.1861205080      -12.3134158755
 C        -4.2368795711       -3.2761146377      -13.1979023165
 C        -5.2287438192       -3.3887698485      -11.8378230139
 O        -5.6512190018       -2.3414519341      -11.3877957451
 C        -5.4652205844       -4.7348665889      -11.2446148616
 C        -4.9709800895       -4.9143709833       -9.8115527829
 C        -6.0465731435       -4.5740490050       -8.7519115009
 O        -7.0212550690       -3.9456620387       -9.0757783462
 C        -5.8836268242       -4.9819313392       -7.1498304775
 C        -5.1677937178       -3.6045212479       -6.5982451999
 O        -3.9784894572       -3.6067789413       -6.4217818665
 C        -6.0572630551       -2.4609966807       -6.2666780843
 C        -5.2288943163       -1.2352102873       -5.7445900766
 C        -6.0994986324       -0.4537822855       -4.7311818168
 O        -7.1953511581       -0.8969858945       -4.4269235532
 C        -5.6966440530        1.0358892973       -4.4661309326
 C        -6.0815769172        1.6974984298       -5.8305492112
 O        -5.2715538693        2.2124530460       -6.5750579507
 C        -7.6128272395        1.7326882309       -6.1119831519
 C        -7.9776932638        2.1202062723       -7.5406205057
 C        -7.4145292304        1.1704374068       -8.6538604307
 O        -7.6864294007       -0.0346538784       -8.6230704820
 C        -6.7895724837        1.8406790713       -9.8883252187
 C        -7.7922377186        1.6572312607      -11.0082640715
 O        -8.2768329996        0.5223356829      -11.1989715123
 C        -8.3457535297        2.8765194879      -11.8460181794
 C        -9.1053295583        2.3187925882      -13.0851752604
 C       -10.1830571313        1.2856738183      -12.6237219801
 O       -10.8035744013        1.6134532755      -11.6663620709
 C       -10.5287791159       -0.1237043890      -13.3265339629
 C       -10.2727991345       -1.3209789288      -12.3128034313
 O        -9.2099977102       -1.9285932526      -12.2547448978
 C       -11.4737730001       -1.9528749036      -11.6611776236
 C       -11.1152133412       -2.9425412532      -10.4584991264
 C       -10.5791528028       -2.2760442332       -9.1015952358
 O        -9.8787961595       -1.2801294306       -9.1556466087
 C       -11.0687339456       -3.0129331268       -7.7998009140
 C       -12.6200880060       -2.6005607356       -7.5631527143
 O       -13.2366821399       -2.4041509010       -8.5751763525
 C       -13.1044182793       -2.6403101608       -6.1156288282
 C       -14.0988903779       -1.4770493492       -5.8285382462
 C       -13.5479552657       -0.1160236644       -6.1041101201
 O       -12.3729201345        0.1734460165       -6.2845305896
 C       -14.3917745198        1.1536641371       -5.9665407383
 C       -14.0558112042        1.9085417241       -4.5553290022
 O       -14.8852947151        1.8374711705       -3.6439110392
 C       -12.6811809438        2.4808900944       -4.3813594106
 C       -12.2318311003        2.3373896807       -2.9604137879
 C       -10.7200521033        2.8522241667       -2.7664221051
 O       -10.0842191937        3.1346731322       -3.7709640940
 C       -10.2860678274        3.1320926821       -1.2622504055
 C       -11.3086196751        4.1927836123       -0.6357637116
 O       -11.6202348670        4.1017018172        0.5559900467
 C       -11.7062849636        5.4183518468       -1.4487591906
 C       -10.2120373196        1.7967999848       -0.4806514623
 C        -8.9627308368        3.9361984079       -1.3486641793
 C       -14.0960916365        2.0676561257       -7.1436449622
 C       -15.9558420801        0.8500763009       -5.9140224473
 C       -11.1299423730       -4.5189691769       -8.0530190889
 C       -10.1694147835       -2.5588369349       -6.5816115263
 C       -12.1138587642        0.0719512380      -13.5447023465
 C        -9.5981597739       -0.3135251439      -14.6144152640
 C        -6.5094153506        3.3338440823       -9.6576622174
 C        -5.5044893334        1.1441368571      -10.3622239889
 C        -6.4782039799        1.6648259824       -3.3866884768
 C        -4.2045093428        1.2727938864       -4.2058843579
 C        -7.3580289776       -5.0530571715       -6.6086580743
 C        -5.0317600212       -6.1590968108       -6.8028991522
 C        -3.9948985142       -1.7699638587      -13.4704356590
 C        -5.0048200856       -4.0822808368      -14.2644011615
 C         1.9881106345       -6.1949953496      -12.9637195035
 C         2.7481351304       -4.8800564415      -11.0138863263
 C         6.7707387059       -3.4089668277      -10.2953099992
 C         8.4318458417       -1.8396323342      -11.4923964213
 C        13.0318527088       -5.5110384363      -14.6679102175
 C        13.2738543955       -3.0963213537      -13.8191812114
 C         6.3138808324       -2.9778408398      -18.4150354468
 C         8.2921950180       -3.2256256968      -19.8497712477
 H         6.7249400831       -0.5205151262      -19.7170764158
 H         8.4538460067       -0.2883708049      -20.2025783099
 H         7.7662071694        0.7434468906      -18.9384093139
 H        10.5513115388       -3.1061299058      -17.8293231865
 H        10.1821069788       -4.6331820182      -18.5163584932
 H        11.4915783095       -5.4588597948      -16.7380152218
 H         9.8074906127       -5.4168679438      -16.0195644667
 H        10.7436948661       -6.5727031527      -12.2006701096
 H         9.7669857029       -5.8372241293      -13.5135476435
 H         9.5472653368       -4.5828027251      -10.5993438432
 H         8.5424298099       -5.8781072053      -11.3142544607
 H         4.6932837989       -1.6862049751      -11.4205525336
 H         4.5927990543       -3.2719313526      -11.2275371375
 H         4.1135852123       -2.2476532153      -14.1654514470
 H         2.8454400339       -2.0530037546      -13.1218165031
 H        -0.7568239988       -5.1902862146      -12.4120440095
 H        -0.2783837331       -4.9114937175      -13.9228203215
 H        -1.4583831927       -2.7990747979      -14.0941050915
 H        -1.1512040233       -2.3982881767      -12.5625115014
 H        -5.0881748796       -5.5200739155      -11.9935212789
 H        -6.5222284335       -5.0702224773      -11.1768054253
 H        -4.0895284518       -4.2523486089       -9.6524630032
 H        -4.5416373828       -5.9166203981       -9.6341376177
 H        -6.6751199229       -2.7210196928       -5.4059223714
 H        -6.6458027245       -2.2954962883       -7.1670427870
 H        -4.9138452440       -0.4581324210       -6.4671741761
 H        -4.2964240223       -1.5491116473       -5.2203623553
 H        -8.0688005570        2.4417564130       -5.4545715104
 H        -7.9201671002        0.7559134231       -5.9074976715
 H        -7.7208065087        3.1432047763       -7.7365526873
 H        -9.0581200181        1.9852000886       -7.5845584721
 H        -7.4971056035        3.5821214760      -12.0473944237
 H        -9.0134126903        3.4435959936      -11.2535469122
 H        -8.4382597079        1.9479138668      -13.8439980108
 H        -9.7119135724        3.1660647371      -13.4980941740
 H       -12.1349890051       -2.4245873540      -12.3517499974
 H       -12.1938573430       -1.2236171697      -11.2378954909
 H       -10.3035829972       -3.5375849647      -10.8365846373
 H       -12.0337257050       -3.5186173714      -10.3229009311
 H       -12.2693089632       -2.7212459981       -5.3670014111
 H       -13.6060646210       -3.6154019654       -6.0164356074
 H       -14.4824634774       -1.4851730631       -4.7919993982
 H       -14.8638933910       -1.6288153097       -6.5326734668
 H       -12.9093257001        3.5115991869       -4.6656932396
 H       -11.9472173642        2.0378553651       -5.0488316748
 H       -12.3738697761        1.3788567357       -2.5512116825
 H       -12.7653148763        2.9592619472       -2.2486488500
 H       -10.8936397824        6.1872338689       -1.4546260195
 H       -12.5811509117        5.8880864042       -1.0193138506
 H       -12.0312163574        5.1264014626       -2.5087750283
 H        -9.4186627927        1.1725742177       -0.9175615502
 H       -11.1573073632        1.2484580240       -0.5561888406
 H        -9.9663645577        1.9005498397        0.6115870351
 H        -8.8046434964        4.5904900899       -0.5350549644
 H        -8.8662274911        4.4348862088       -2.3196381480
 H        -8.1205019415        3.3207319542       -1.2953555495
 H       -14.4921601153        1.5531612478       -8.0186729983
 H       -13.0658242307        2.1325879907       -7.4038137807
 H       -14.6974622619        3.0458733802       -7.0665461989
 H       -16.0849883785       -0.0535418302       -5.3361259503
 H       -16.3304626240        0.7719260154       -6.9495828644
 H       -16.3887304174        1.6270359370       -5.3531765786
 H       -11.9931559494       -4.6723184910       -8.6329934124
 H       -11.0890684378       -5.1114812850       -7.1402174084
 H       -10.3366921112       -4.7757460693       -8.6769981816
 H       -10.3173308674       -3.1101806896       -5.5873410491
 H       -10.2077429537       -1.4826799467       -6.4503300377
 H        -9.1732767590       -2.7810275210       -6.9930881479
 H       -12.4564566095        0.8340551596      -14.2504288326
 H       -12.5054277459        0.3840328874      -12.5713888534
 H       -12.5287338054       -0.8620935824      -13.8546455436
 H        -8.5704730586       -0.4956620794      -14.3080335897
 H        -9.7311255508        0.6180424572      -15.2024742366
 H       -10.0960434945       -1.0968090189      -15.1744768037
 H        -5.9031906330        3.9429872985      -10.3938303650
 H        -5.8911661484        3.5205662844       -8.7876719034
 H        -7.5633342226        3.8610780545       -9.5925833923
 H        -5.6141869028        0.3631549767      -11.0706230376
 H        -4.8206957232        0.7099125353       -9.6464790788
 H        -4.8351876598        1.8415363399      -10.8346779527
 H        -6.2882988667        2.6442275245       -3.4411489572
 H        -5.9781122289        1.4758148104       -2.4448793545
 H        -7.5852608190        1.4082509933       -3.2396653242
 H        -4.1175218810        1.9187945085       -3.3454153512
 H        -3.7188952329        1.6164166413       -5.0830850076
 H        -3.8451919145        0.2938451824       -3.9042972193
 H        -7.4351819619       -4.7759860057       -5.5640808319
 H        -7.6642656035       -6.0523241143       -6.5403801517
 H        -8.0182038977       -4.4489231394       -7.3328568426
 H        -3.9982980151       -5.8613633103       -7.0248332394
 H        -5.3506687452       -6.9771141379       -7.3587741921
 H        -5.2032543140       -6.2958674088       -5.6980349680
 H        -3.5130262674       -1.7704689467      -14.4661519253
 H        -3.3464522966       -1.3207640094      -12.7660895491
 H        -4.9373432420       -1.2165764613      -13.6394181762
 H        -6.0195595713       -3.7568582991      -14.1667685260
 H        -4.9309306649       -5.1167087632      -13.9696525042
 H        -4.6261835831       -4.0732609423      -15.2918988571
 H         2.0662869495       -6.2646671385      -14.0362227825
 H         1.0730186604       -6.5607766792      -12.5721854464
 H         2.7215613886       -6.8559597585      -12.5459126013
 H         3.7862867484       -5.1552810307      -11.0839261259
 H         2.2281919938       -5.5693490055      -10.4016547071
 H         2.6554671875       -3.9320333270      -10.4808827270
 H         5.9447354950       -4.1501415981      -10.5163582150
 H         6.3329755551       -2.7644926043       -9.6113755100
 H         7.5127336746       -3.9288167118       -9.7509977911
 H         9.4217434801       -2.0901324476      -11.0137144743
 H         7.9855300868       -1.0038651973      -11.0102842753
 H         8.6726266745       -1.5133523072      -12.4715758704
 H        12.2432478307       -6.0918884253      -15.1221895586
 H        13.6483822394       -6.1066480085      -13.9705864161
 H        13.7162922164       -5.3836859309      -15.5347899453
 H        14.1962548391       -3.1215832240      -14.3498849179
 H        13.4527090672       -3.3027730048      -12.7290876238
 H        12.6968317292       -2.2236223553      -14.0571597234
 H         5.7893003417       -2.1424992789      -18.8882182391
 H         5.9559853466       -3.1915449572      -17.3721039383
 H         5.8644842501       -3.8215174360      -19.0968730724
 H         9.2785767421       -2.8275897368      -20.0729826588
 H         7.6898600698       -2.7174369671      -20.5448830995
 H         8.2090367275       -4.2466781138      -20.1278199347
 Na        8.3122965089       -2.2246665926      -15.0467335464
 Na       -7.8410033941       -1.7335861950      -10.3902853609
