232

 C         7.5565741664       -0.3564541941      -19.2764507838
 C         7.6868034737       -1.4770954685      -18.2664586295
 O         7.7123873919       -1.2510330309      -17.0873736120
 C         7.6675980407       -3.0101687784      -18.6907711652
 C         8.5793743022       -3.8368144542      -17.5998305065
 O         8.0852339570       -4.3259373361      -16.6114301317
 C        10.0598853831       -3.9251562252      -17.6802486639
 C        10.8018995355       -4.6297750535      -16.5459466254
 C        10.9683695934       -3.8413345683      -15.3070405470
 O        10.3854930524       -2.7522964040      -15.1230025969
 C        12.0748809898       -4.2042550374      -14.2950973723
 C        11.4348585030       -4.4708811686      -12.7883188881
 O        11.9236001134       -3.8034834152      -11.8599512355
 C        10.3996844820       -5.5398434937      -12.5955815734
 C         9.2628096397       -5.0200513671      -11.7024455200
 C         8.4758759986       -3.8815436770      -12.5297694151
 O         8.4663713054       -3.8979468874      -13.7468637558
 C         7.7621190854       -2.8023696280      -11.6497992529
 C         6.4456362792       -2.3657870166      -12.4828219618
 O         6.5131294765       -1.8249355448      -13.6155399680
 C         5.1137614860       -2.5119740818      -11.8464082983
 C         3.9159754117       -2.5122461614      -12.7426801488
 C         3.3043039591       -3.8587725685      -13.2473566055
 O         3.6525785760       -4.2956485391      -14.3230769555
 C         2.2614181980       -4.7756255710      -12.4092605962
 C         0.9173463748       -4.0151165774      -12.4709225638
 O         0.8308661500       -2.9826941494      -11.8236453377
 C        -0.3034835754       -4.3730679496      -13.3966314132
 C        -1.4738975368       -3.3179182612      -13.4284678608
 C        -2.7106304542       -3.8299048074      -12.6381434859
 O        -2.6422115057       -4.7302704790      -11.8580233765
 C        -4.0924493195       -3.1468442214      -12.9314459681
 C        -5.1886381187       -3.1183617283      -11.8455156581
 O        -5.4569232466       -2.0872832837      -11.2628032142
 C        -5.7920322131       -4.4397904805      -11.5040941394
 C        -5.3244032338       -4.8907147200      -10.0882689077
 C        -6.0361599767       -4.4385866933       -8.8528862014
 O        -6.9130092877       -3.5791759021       -8.8804536330
 C        -5.7299707891       -5.0251916615       -7.4696262130
 C        -5.1234764087       -3.8211380270       -6.6588673350
 O        -3.9443233180       -3.7705856132       -6.4249019026
 C        -6.1247483610       -2.7479729786       -6.2319474361
 C        -5.3810302840       -1.4442398293       -5.8353373158
 C        -6.1055928093       -0.7370129116       -4.7490754456
 O        -7.0451297990       -1.2405915234       -4.2251897509
 C        -5.7245176631        0.8015491172       -4.5940822611
 C        -6.1713977631        1.5985185514       -5.8371628325
 O        -5.4032343113        1.9788590472       -6.6998441539
 C        -7.7279271065        1.8836866069       -6.1046429656
 C        -7.9008045611        2.5334729006       -7.5092349520
 C        -7.2531496812        1.5805975230       -8.5422902819
 O        -7.1590039291        0.3883988360       -8.3086986294
 C        -6.5996043803        1.9997120225       -9.9281214278
 C        -7.5395516858        1.5501000638      -11.0951353532
 O        -7.5221526784        0.3872923527      -11.4797156570
 C        -8.3282523518        2.6173414557      -11.9081781749
 C        -9.3751619125        2.1424360252      -13.0230270340
 C       -10.3466652800        1.0753298612      -12.4526102590
 O       -10.8478201982        1.1636507826      -11.3696656278
 C       -10.7612410127       -0.2020559708      -13.2524266923
 C       -10.4240585566       -1.3281150401      -12.1981752333
 O        -9.2614669277       -1.5951950957      -12.0899181743
 C       -11.5143763216       -1.9113805287      -11.2724089847
 C       -11.0426468692       -3.1239057684      -10.4303327001
 C       -10.6429114409       -2.6465891791       -9.0812634090
 O        -9.8917988672       -1.6646259949       -8.9417710992
 C       -11.3626842153       -3.1916087324       -7.7085806597
 C       -12.7452576294       -2.5066331111       -7.6629230237
 O       -13.1780955843       -1.8850142098       -8.5944425625
 C       -13.5564894474       -2.6537388680       -6.3781564523
 C       -14.6404245186       -1.5765040402       -6.1434403824
 C       -14.0326037021       -0.2007306147       -6.0951558217
 O       -12.8478560570       -0.0088100038       -6.3458123878
 C       -14.8412085277        1.1715279911       -5.7928299107
 C       -14.0669398884        1.8133275613       -4.4754136259
 O       -14.6551746348        1.8078907642       -3.3964751917
 C       -12.5247288531        2.2154489061       -4.5184349308
 C       -11.9059768861        2.0887160658       -3.1361183186
 C       -10.5658389680        2.9454493826       -2.8487647103
 O       -10.0831583907        3.6055138367       -3.7577367289
 C       -10.2330069418        3.2040942983       -1.3941081436
 C       -11.1582044351        4.2572645585       -0.5730801335
 O       -11.1470066245        4.1809476887        0.6083113835
 C       -11.8910704000        5.4537565017       -1.2834929583
 C       -10.3206223790        1.8658915797       -0.6224377191
 C        -8.8001744596        3.7609347045       -1.3443913508
 C       -14.5383947789        2.1876570288       -6.9038623848
 C       -16.3217303942        0.9375958935       -5.4055513629
 C       -11.4532184282       -4.7516447113       -7.8404284438
 C       -10.5811421537       -2.6627551441       -6.5018822164
 C       -12.3029040561       -0.1654318971      -13.4911799565
 C       -10.0034721044       -0.4392455301      -14.5218174862
 C        -6.3087928743        3.5135199703      -10.0536155931
 C        -5.2571682980        1.2273451338      -10.0501138023
 C        -6.2359419182        1.5533323980       -3.2622027221
 C        -4.0979936506        1.0371359726       -4.5574352700
 C        -6.9873306350       -5.7121961410       -6.7116900998
 C        -4.5852241082       -6.2376605751       -7.4856848569
 C        -3.9281867138       -1.6690213489      -13.3858584824
 C        -4.5592478635       -4.1125907066      -14.2346561390
 C         2.1886623824       -6.1582014054      -13.0929903343
 C         2.7110389728       -4.9137247954      -10.9263299881
 C         7.3729562912       -3.3065862922      -10.2273600280
 C         8.5799629137       -1.4779359998      -11.6644322324
 C        12.7930248784       -5.5113327605      -14.7386565292
 C        13.1346160998       -3.0274939259      -14.2197142210
 C         6.1580211788       -3.5180738234      -18.5343195973
 C         8.2642905767       -3.2910428461      -20.1365625518
 H         6.8411849702       -0.7055234978      -20.0957029071
 H         8.5545687904       -0.1971058007      -19.6043173423
 H         7.1085764689        0.5188755289      -18.8245883682
 H        10.4999544173       -2.9244423895      -17.7788474460
 H        10.3357005485       -4.3703445691      -18.6564194618
 H        11.7460790699       -5.0401206534      -16.9464423073
 H        10.2295895079       -5.4989572590      -16.1649400796
 H        10.9790467309       -6.3730837999      -12.1153257157
 H        10.2298055830       -5.8629187078      -13.6334844889
 H         9.6979338565       -4.6013159846      -10.8108212911
 H         8.5897327112       -5.8363771413      -11.4560740539
 H         4.9642394151       -1.6131475454      -11.1737933776
 H         5.0554770572       -3.3611025531      -11.0844802639
 H         4.0911414462       -1.7785539831      -13.5827748996
 H         3.0862922299       -1.9672361973      -12.2590052511
 H        -0.8113675058       -5.3224902587      -13.1565222798
 H         0.0788231788       -4.6117134398      -14.3539697692
 H        -1.6965631913       -3.0731040438      -14.5168291909
 H        -1.2040343327       -2.2738338662      -13.1226157270
 H        -5.6539322604       -5.3528122350      -12.1728073814
 H        -6.8688833030       -4.2176872221      -11.4758180842
 H        -4.3071288174       -4.4194834425      -10.0167962010
 H        -5.0757724733       -5.9521745114      -10.2130399115
 H        -6.6850116637       -3.2200193219       -5.4137920847
 H        -6.8223792586       -2.5261698143       -7.0339276455
 H        -5.3402323893       -0.8391921061       -6.7073928435
 H        -4.4226098627       -1.8010254933       -5.4784986705
 H        -8.0768097130        2.5379350321       -5.3640065473
 H        -8.2209687800        0.9789356692       -6.0493454128
 H        -7.4501224677        3.5341691826       -7.6048914876
 H        -8.9422616153        2.4777448623       -7.7664695829
 H        -7.5926361531        3.3295165845      -12.4161304487
 H        -8.8454789546        3.2256728438      -11.1438943140
 H        -8.8618339425        1.8828601637      -13.9430034362
 H       -10.0147650569        3.0189946123      -13.1396253191
 H       -12.4083187127       -2.2394265586      -11.7992752641
 H       -11.8301316631       -1.1155479529      -10.5262953689
 H       -10.2250991470       -3.5690109445      -10.9418610827
 H       -11.9134358556       -3.7841627719      -10.2754350719
 H       -12.9757835693       -2.8180021851       -5.4782473245
 H       -14.0739271169       -3.5539401796       -6.5178069119
 H       -15.2721708521       -1.7378269938       -5.2799905914
 H       -15.1994370798       -1.6194973369       -7.0213463679
 H       -12.4335490798        3.2940331440       -4.7808647137
 H       -12.1436277837        1.7009468041       -5.3926181053
 H       -11.6392042400        1.0856150006       -2.8973938069
 H       -12.6301797362        2.4157677383       -2.3562210546
 H       -12.0254484595        5.3367149082       -2.3581078838
 H       -11.4415437678        6.4197626338       -1.0766548846
 H       -12.9283949894        5.4933267811       -0.8250537610
 H        -9.6556119809        1.1084629575       -1.0777654685
 H       -11.3164357046        1.4321648649       -0.6567610985
 H       -10.0107294711        1.8924842897        0.4650069764
 H        -8.3312299743        3.6654247062       -0.3877857821
 H        -8.8336565934        4.8671632408       -1.5228834362
 H        -8.1530178934        3.4244767993       -2.1245071167
 H       -13.8527784397        1.8236009827       -7.6248076817
 H       -14.1874147716        3.1736679738       -6.5332166955
 H       -15.5386828216        2.4223941957       -7.3816290284
 H       -16.1799257322        0.4026598844       -4.4999895967
 H       -16.9056635708        0.4234916960       -6.0904118756
 H       -16.7304111214        1.8854776943       -5.2268988725
 H       -12.0439277304       -5.0343593049       -8.6842072027
 H       -11.8954117842       -5.0222545377       -6.8401098572
 H       -10.5154969500       -5.2552087858       -7.8126581077
 H       -11.0590037823       -2.9804294540       -5.5958866181
 H       -10.5994257379       -1.5978756898       -6.4663043080
 H        -9.5955237463       -2.9593247596       -6.5766560905
 H       -12.6884692887        0.7521192852      -14.0608486870
 H       -12.7811173067       -0.0824051027      -12.5099708623
 H       -12.7078296944       -1.0890665771      -13.9361931298
 H        -8.9912525181       -0.8465160981      -14.2239402767
 H       -10.0509697404        0.5004770873      -14.9916006003
 H       -10.6083948132       -1.1311789466      -15.1857503988
 H        -5.7452823047        3.7431499180      -10.9593056008
 H        -5.7994830512        3.8983196263       -9.1630151910
 H        -7.1225640792        4.2918614273      -10.1669098340
 H        -5.1587603091        0.3085279483       -9.5435831389
 H        -4.3836581544        1.7304472625       -9.7071974240
 H        -4.9752361574        1.1144917878      -11.0503281971
 H        -5.9219813849        2.5920495525       -3.3518000816
 H        -5.9153625101        1.1747694493       -2.3677668013
 H        -7.2407391261        1.5705859903       -3.0939534514
 H        -3.8611677030        2.0290816913       -4.8422318708
 H        -3.7354544745        0.3770097466       -5.3061143093
 H        -3.7386408459        0.8135104282       -3.5995321387
 H        -6.7374421165       -6.1515309720       -5.7525672565
 H        -7.4587998975       -6.4172524169       -7.3450926074
 H        -7.7702412455       -4.8842935311       -6.6056263394
 H        -3.7010381680       -5.9409096214       -8.0649643514
 H        -5.0517289523       -7.1085664172       -7.8287939479
 H        -4.1947356032       -6.3076463705       -6.4339002443
 H        -3.3032717749       -1.5987463979      -14.3019678096
 H        -3.5959378706       -1.0323134742      -12.6497252567
 H        -4.9130629119       -1.2951831443      -13.6775884007
 H        -5.5584542410       -3.8743074026      -14.4880867593
 H        -4.7248951313       -5.0797827061      -13.7271953574
 H        -3.8107453466       -4.1468301591      -15.0077347150
 H         1.5389779366       -6.1570832681      -13.9281038169
 H         1.9631589861       -6.8675566925      -12.3489290452
 H         3.1540273435       -6.4561470578      -13.4795715235
 H         3.7774861439       -5.2389614811      -10.9024701225
 H         2.1578398985       -5.6775991751      -10.3898978693
 H         2.7041439771       -3.9203640574      -10.4200521224
 H         6.6683415955       -4.1815737051      -10.2703652360
 H         6.9246571177       -2.6413169949       -9.5143905328
 H         8.2479372691       -3.6151602875       -9.7324144118
 H         9.4307742346       -1.4082433565      -10.9346519168
 H         7.8841636442       -0.6457529364      -11.3810971323
 H         8.8805803613       -1.2069524853      -12.6455011367
 H        12.2138645332       -6.4408259491      -14.8721160905
 H        13.6448772134       -5.7018243649      -14.1541826015
 H        13.3440143455       -5.3633009874      -15.6701839211
 H        13.2828792082       -2.5491067680      -15.1954637828
 H        14.0183409208       -3.5314949434      -13.7590765627
 H        12.7479177250       -2.3532297333      -13.5724346145
 H         5.5083892403       -3.1693012800      -19.3651214302
 H         5.6080939978       -3.3202413626      -17.5506126828
 H         6.1360831158       -4.6403447293      -18.6077209977
 H         9.2724304998       -2.9343913366      -20.2790222874
 H         7.7660729012       -2.9077361633      -20.9775931372
 H         8.5052405448       -4.3224897373      -20.1734758552
 Na        8.2031361995       -2.1047621588      -15.1285120637
 Na       -7.6218829756       -1.4923058297      -10.0393184527
