232

 C         7.3123844277       -0.5890118297      -19.5392992219
 C         7.4347958855       -1.5930321907      -18.4082577073
 O         7.2166718448       -1.1875168680      -17.2947164061
 C         7.6301469236       -3.1498892129      -18.6417560930
 C         8.5615621964       -3.8148567084      -17.5555223885
 O         7.9228106114       -4.3727196897      -16.7072952413
 C        10.0659191252       -3.6937315726      -17.7034996209
 C        10.9261235729       -4.4886061755      -16.7080415364
 C        11.1178810948       -3.7554645572      -15.3582780649
 O        10.5260188351       -2.7122534519      -15.0292956564
 C        12.2544307502       -4.2740677188      -14.4131717049
 C        11.4739382770       -4.2762271957      -13.1205188837
 O        11.5317204490       -3.3375488970      -12.3335654863
 C        10.4740238553       -5.3528496580      -12.7389812333
 C         9.4084898235       -4.8590321710      -11.7788362769
 C         8.4569649840       -3.8598248546      -12.4313141992
 O         8.2707964932       -4.0043394920      -13.6402818079
 C         7.7645841464       -2.7088726717      -11.6241840386
 C         6.3512323182       -2.3590983224      -12.2734089854
 O         6.3950505077       -1.7805428390      -13.3453478221
 C         5.0821368139       -2.8867241309      -11.5657077133
 C         3.8105157969       -2.4534832005      -12.3139045829
 C         3.3682588823       -3.6585027795      -13.1010976871
 O         3.7872090342       -3.9226709940      -14.2282783239
 C         2.2333611912       -4.6329395721      -12.4612004020
 C         0.8544566194       -3.8456086930      -12.5011570669
 O         0.8160685668       -2.7740959432      -11.9228497715
 C        -0.3825004653       -4.4826432383      -13.2778486832
 C        -1.4994401502       -3.4074103465      -13.3487547233
 C        -2.7246996921       -3.7299376417      -12.4437100843
 O        -2.5709614381       -4.3532089365      -11.4250724404
 C        -4.0139462949       -2.9503567044      -12.9867417759
 C        -5.1301391675       -2.8961447815      -11.9402499221
 O        -5.4023856385       -1.9427253112      -11.2611800360
 C        -5.9955708879       -4.1735531504      -11.6583154978
 C        -5.6316972199       -5.1346662139      -10.4383223532
 C        -6.0939758480       -4.4746895900       -9.0375062179
 O        -6.9122130354       -3.5927296286       -8.9656642323
 C        -5.5660754684       -5.1317812262       -7.7198900754
 C        -5.0566376255       -4.0181198087       -6.6271344515
 O        -3.8947648339       -3.8575725345       -6.4030992045
 C        -5.9277979929       -3.0409094894       -5.9029221792
 C        -5.4165195027       -1.5891522181       -5.7545069258
 C        -6.1220832569       -0.7445013667       -4.7374207441
 O        -6.9733263050       -1.1630413126       -4.0257759024
 C        -5.6574865617        0.8963849535       -4.6390571161
 C        -6.0862418843        1.6319050524       -6.0481815939
 O        -5.2020689727        1.7160440499       -6.8852624009
 C        -7.4990932990        2.0697415857       -6.2214846441
 C        -7.8250644362        2.5037832127       -7.6564141763
 C        -7.2326057607        1.5278684675       -8.7200167231
 O        -7.3789469077        0.3471467599       -8.5986513424
 C        -6.4991605693        2.0806047953       -9.9442546337
 C        -7.3122555546        1.6427754705      -11.0496578071
 O        -7.1896786681        0.4489896369      -11.4897555184
 C        -8.5039652970        2.5164405386      -11.6030549228
 C        -9.1182306622        1.7317676856      -12.7309698091
 C       -10.3521650009        0.9899810269      -12.2797295923
 O       -10.9064580945        1.3146790858      -11.2897726181
 C       -10.8402166992       -0.3127056527      -13.0823259644
 C       -10.4275220206       -1.4519078718      -12.0144084669
 O        -9.2499128252       -1.7550456164      -12.0360149820
 C       -11.6053235539       -2.0612524796      -11.1736750995
 C       -11.1359724675       -3.1845890777      -10.2436537065
 C       -10.5383585675       -2.8019401985       -8.8831695111
 O        -9.3655289395       -2.7288305387       -8.6166555528
 C       -11.5072371256       -2.9405759038       -7.5879872947
 C       -12.9304857255       -2.3138252314       -7.7782490793
 O       -13.2786696648       -1.8451557129       -8.8362719421
 C       -14.0346863305       -2.6494512214       -6.7144003258
 C       -14.9023823323       -1.5046034229       -6.2106721112
 C       -14.1133749655       -0.1606606623       -6.1282324147
 O       -12.9195635354       -0.1715397214       -6.3990645392
 C       -14.7853933588        1.2376080457       -5.5607451733
 C       -14.0630839735        1.6513213427       -4.3084475112
 O       -14.6068559521        1.6229419991       -3.1903764007
 C       -12.5773399317        2.1893807019       -4.4086741346
 C       -11.8449904801        2.0243711771       -3.0678280358
 C       -10.7032687893        3.0264458866       -2.8877407152
 O       -10.3457667854        3.7681581960       -3.7895497584
 C       -10.0810532106        3.1608452776       -1.4984046416
 C       -11.0399562944        4.2827510817       -0.6009693555
 O       -11.0664717341        4.1895586041        0.5694804322
 C       -11.8464554100        5.3093658436       -1.4104345353
 C       -10.1407961946        1.8485901619       -0.7912084718
 C        -8.6846090328        3.7548737766       -1.5238088525
 C       -14.6332201207        2.2721679658       -6.6455576220
 C       -16.2501748049        0.8998813558       -5.1522578414
 C       -11.7743780958       -4.4702181064       -7.5409608937
 C       -10.7259850861       -2.5035796394       -6.2095249763
 C       -12.3590376480       -0.1798515565      -13.3029293960
 C        -9.9794490937       -0.5264246862      -14.3747312242
 C        -6.3736799902        3.5542476430       -9.8876154768
 C        -5.0679769778        1.4577297686      -10.0932152123
 C        -6.3369069733        1.5173834807       -3.4136506968
 C        -4.1247399539        0.9604005312       -4.4800456688
 C        -6.8763781481       -5.8426767547       -7.0633523309
 C        -4.4196327024       -6.0409232373       -8.0223602361
 C        -3.6175406455       -1.5276338535      -13.3981595107
 C        -4.6252186650       -3.7126428315      -14.3392813037
 C         2.2599931842       -6.0141207575      -13.1777532521
 C         2.6421447730       -4.8848590317      -10.9945297415
 C         7.8458647093       -2.9809964254      -10.0922550234
 C         8.7934129371       -1.5589581519      -11.9945586427
 C        12.8587356075       -5.6962595060      -14.6639845124
 C        13.4391692963       -3.0798355553      -14.3549915242
 C         6.2031659180       -3.8666177546      -18.7137011026
 C         8.3121746455       -3.2755773588      -19.9937960292
 H         6.4780519868       -0.9074228094      -20.2255264477
 H         8.3118284952       -0.5902031736      -19.9520459797
 H         7.0891058782        0.3644159010      -19.1737840206
 H        10.1916833428       -2.6113205803      -17.7399306787
 H        10.3614817190       -4.0390802144      -18.6936263238
 H        11.8699135557       -4.7797741859      -17.1092982989
 H        10.3770504002       -5.3994860385      -16.5109146966
 H        11.0710554473       -6.1626880034      -12.3380962896
 H        10.0532407499       -5.7261122181      -13.6462894985
 H         9.7626144822       -4.3834451807      -10.8478346514
 H         8.8165240434       -5.7745348425      -11.5905561848
 H         4.9680930551       -2.5232204506      -10.5704893116
 H         5.0841787868       -4.0108162133      -11.6100617473
 H         4.0215941355       -1.6380223013      -13.0163969819
 H         3.0279927057       -2.1590014309      -11.7151422680
 H        -0.6505384381       -5.4271351067      -12.7057068737
 H        -0.0546920056       -4.8571321807      -14.2819603754
 H        -1.7255252235       -3.2526782651      -14.4245764306
 H        -1.0394269605       -2.4741228076      -13.0541262994
 H        -5.8433891549       -4.7843198894      -12.5424495232
 H        -6.9967279452       -3.9314923332      -11.5461571610
 H        -4.5603942556       -5.2713428740      -10.4034062329
 H        -6.0938379949       -6.0884222585      -10.7051950814
 H        -5.9621762602       -3.4144241361       -4.8893321268
 H        -7.0279457722       -3.0822165131       -6.2312620084
 H        -5.6877829068       -1.0512009519       -6.7089003271
 H        -4.3818764354       -1.6792539175       -5.4494935258
 H        -7.7360342688        2.7920628259       -5.3459775267
 H        -7.9969316626        1.1109662332       -5.9162872751
 H        -7.5255316783        3.5131553878       -7.9011439384
 H        -8.9543796932        2.3644079177       -7.7858044541
 H        -8.1578090763        3.5422645724      -11.9754408562
 H        -9.3201400114        2.6237590262      -10.8909457867
 H        -8.4380278442        1.0239458710      -13.1470572932
 H        -9.5045378448        2.4269191261      -13.5279417335
 H       -12.1607138169       -2.6746471228      -11.9036462234
 H       -12.2528962811       -1.2675591722      -10.6949480176
 H       -10.3386951737       -3.7391485997      -10.8262729372
 H       -11.9962182615       -3.8667017720      -10.0826765796
 H       -13.6123679240       -3.0340836104       -5.7763505724
 H       -14.7652169622       -3.4079629028       -7.0499693573
 H       -15.4940981980       -1.8827023409       -5.2778199613
 H       -15.6864534500       -1.3211274914       -6.9686235033
 H       -12.7320978035        3.2471261315       -4.6812041115
 H       -12.0768540689        1.8480505180       -5.3236346595
 H       -11.5973342667        0.9407298321       -2.8932180860
 H       -12.4669733015        2.4935443097       -2.2967529139
 H       -12.8239828898        4.8439772235       -1.5222335041
 H       -11.3715696110        5.5560012331       -2.3112415630
 H       -12.0850073622        6.2444821873       -0.8543436533
 H        -9.6909387144        1.0228644506       -1.2831334479
 H       -11.1682003671        1.5717042138       -0.6810924027
 H        -9.7721487229        1.8560021103        0.2251637242
 H        -8.3463371033        4.0038496125       -0.5157511057
 H        -8.5755843014        4.7561066307       -1.9951618526
 H        -7.9948091625        3.0649884353       -1.9818510741
 H       -13.8265150339        2.9124145014       -6.4528504050
 H       -15.5261364604        2.8084318594       -6.7107384140
 H       -14.4089708210        1.8187169899       -7.6607401667
 H       -16.1413025551       -0.1405214498       -4.7311599099
 H       -16.9349607318        0.8775196498       -6.0567520855
 H       -16.6328813585        1.6386428267       -4.4348763159
 H       -12.4037705525       -4.7707839900       -8.3982134318
 H       -12.3514767234       -4.8079114868       -6.6479179514
 H       -10.7941090438       -4.9685669402       -7.6158112726
 H       -11.2686423536       -2.7762746125       -5.2311766450
 H       -10.5333593559       -1.4209420960       -6.1537519813
 H        -9.7218845359       -2.9907031276       -6.2250910774
 H       -12.6522357536        0.5782549659      -14.0043634604
 H       -12.8821394224       -0.0114193254      -12.3737496021
 H       -12.7808009008       -1.0763346022      -13.6970703728
 H        -8.9545707202       -0.7259255444      -14.1594164338
 H       -10.2288065517        0.2504526619      -15.0892284376
 H       -10.3803243796       -1.4662751469      -14.6474373541
 H        -5.9708249143        3.9069356023      -10.8019430663
 H        -5.8124438112        3.8665953200       -9.0992219931
 H        -7.2910985779        4.1218404275       -9.7556248511
 H        -4.8980403587        0.4701946689      -10.5766035096
 H        -4.5831067002        1.1622781765       -9.1092639000
 H        -4.3387256510        2.1844594603      -10.5597051835
 H        -6.0220744883        2.5381712593       -3.2184643358
 H        -6.1305169045        0.9233506432       -2.5460210732
 H        -7.4189480377        1.5673716906       -3.3588835339
 H        -3.9171623892        2.0265760245       -4.1563501507
 H        -3.6815828601        0.7775664435       -5.4677145888
 H        -3.8648152994        0.2347200139       -3.6471900906
 H        -6.5936277617       -5.9799806402       -6.0333730275
 H        -7.1060836874       -6.7351912492       -7.5723423124
 H        -7.8592630232       -5.2730322296       -7.0650424982
 H        -3.4765075293       -5.5057727161       -8.2448547585
 H        -4.7622496170       -6.6540561732       -8.7921401121
 H        -4.3309340807       -6.7431941395       -7.1422758315
 H        -2.9715432383       -1.5442853716      -14.2885517067
 H        -3.3309481525       -0.7647446458      -12.7015007533
 H        -4.6023800296       -1.1717362985      -13.8158063708
 H        -5.5950496482       -3.3009062098      -14.6444368504
 H        -4.6184682774       -4.7785432638      -14.1401852668
 H        -3.8802691424       -3.3273561994      -15.0637462470
 H         1.5161181159       -6.1057572373      -14.0218989920
 H         2.1038249379       -6.8073819438      -12.4035123315
 H         3.3110482494       -6.1010325134      -13.5422587544
 H         3.4368257342       -5.6024118734      -10.9848148111
 H         1.8198582656       -5.4031829134      -10.5637286777
 H         2.8607062614       -3.9991770914      -10.3970353318
 H         7.3723224037       -3.9716370028       -9.7084826515
 H         7.2957231431       -2.2056846983       -9.6314878323
 H         8.8189323408       -3.0454578534       -9.6047890775
 H         9.8447523611       -1.8673118689      -11.6591630546
 H         8.6766332475       -0.6533543036      -11.4390593191
 H         8.7717815238       -1.3334800628      -13.0406706191
 H        12.1361705764       -6.4802032541      -14.5490107529
 H        13.6266724240       -6.0445301620      -13.9643674819
 H        13.2971351319       -5.8670987844      -15.6748998125
 H        14.0158881276       -3.1486152809      -15.3006558861
 H        14.0247558698       -3.3022707003      -13.3679685026
 H        12.9634161694       -2.1738260703      -14.2040452783
 H         5.5765310579       -3.4294572172      -19.3825506295
 H         5.7007992823       -3.7054865456      -17.8164923451
 H         6.2568290029       -4.9348033058      -18.8230967521
 H         9.3217605131       -2.7352646373      -20.0822328093
 H         7.6846400462       -2.9562544452      -20.8618996892
 H         8.6829344439       -4.2880914625      -20.3063224194
 Na        7.7000882470       -2.3652960954      -15.1823077472
 Na       -7.4007779236       -1.5521070870      -10.0662041476
