232

 C         7.2015813569       -0.6111382734      -19.6067577720
 C         7.2619217938       -1.6362755075      -18.4567891952
 O         7.1842253373       -1.2841158178      -17.2907560909
 C         7.5636339231       -3.1403412174      -18.7664475943
 C         8.4540986673       -3.7589990634      -17.5336146941
 O         8.0077212210       -4.3040786439      -16.5426898919
 C         9.9835839700       -3.6254254402      -17.6996216666
 C        10.9863311736       -4.4041666297      -16.7800358280
 C        11.1822251059       -3.7042461207      -15.4407129181
 O        10.5136801074       -2.7067773595      -15.1780183700
 C        12.2432224129       -4.3161493135      -14.3791363187
 C        11.4944697279       -4.1341163133      -12.9382517372
 O        11.4760059184       -3.0481529501      -12.3825600442
 C        10.4708801117       -5.3356016658      -12.7383131023
 C         9.3863464732       -4.9476192025      -11.7292794765
 C         8.3680443136       -3.9023065210      -12.4415429358
 O         8.1083634256       -4.0582309706      -13.5810605625
 C         7.8718840687       -2.7460549347      -11.6547932209
 C         6.4590572292       -2.4093513205      -12.1400438921
 O         6.3458517974       -1.8160288415      -13.2252989335
 C         5.2716133175       -2.8126004957      -11.4270023966
 C         3.9881483789       -2.4443141538      -12.2023055478
 C         3.2815920973       -3.6153034923      -13.0255090069
 O         3.6900700339       -3.7812121252      -14.1201025717
 C         2.2503162393       -4.6894457280      -12.4380926517
 C         0.9043293707       -3.8967602343      -12.5396886751
 O         0.8192719836       -2.7699283601      -12.0796271701
 C        -0.3931471748       -4.4628617706      -13.1503951194
 C        -1.5388868068       -3.4242564477      -13.3192893301
 C        -2.7235508375       -3.5942742483      -12.4643649546
 O        -2.7639012089       -4.2031722765      -11.3984668672
 C        -3.9971982187       -2.8374046457      -13.0133050737
 C        -5.1097483163       -2.8975890635      -11.8817474813
 O        -5.2629340569       -1.8651797066      -11.2967072455
 C        -6.0391575575       -4.1965691737      -11.7153961939
 C        -5.7138984776       -4.9880801502      -10.4697802394
 C        -6.0456410591       -4.4177303705       -9.1270673119
 O        -6.8061717537       -3.4491033784       -9.0666897673
 C        -5.4979533268       -5.1521360871       -7.7790928845
 C        -5.0109052144       -3.9349271338       -6.7483595304
 O        -3.8270457077       -3.9887512659       -6.5242395722
 C        -6.0231366994       -3.0931847666       -5.8748458468
 C        -5.4355883849       -1.6555681826       -5.8533000634
 C        -6.1379293496       -0.7510637432       -4.7761003796
 O        -6.9857991777       -1.2157484644       -4.0715846391
 C        -5.6194230067        0.8047181852       -4.5810686909
 C        -5.9580990472        1.5055363829       -6.0170213346
 O        -5.1585808166        1.6052733314       -6.9013147778
 C        -7.4583146438        1.9289682991       -6.1731929347
 C        -7.9077473466        2.3916238677       -7.5982981445
 C        -7.2637795835        1.5002972051       -8.6532458791
 O        -7.4866384269        0.3194494989       -8.6517919136
 C        -6.4358553101        2.2354352945       -9.9048849141
 C        -7.2535089420        1.5778162178      -11.1191876579
 O        -7.1202510257        0.4634721436      -11.5182748018
 C        -8.4718499594        2.4319428588      -11.6611944457
 C        -9.1622856900        1.7599906830      -12.8344342088
 C       -10.3713515364        1.0036079025      -12.2357573252
 O       -11.0114431399        1.4036039984      -11.2596964192
 C       -10.8379006728       -0.3488405310      -12.9931201391
 C       -10.4001810004       -1.4985927360      -12.0124706355
 O        -9.2557694576       -1.8509880347      -11.9159740568
 C       -11.4486654907       -2.0694833177      -11.0962518326
 C       -11.0942979520       -3.2852461952      -10.1765277312
 C       -10.6057688909       -2.9399815006       -8.7431901636
 O        -9.3621453552       -2.7750132090       -8.6489714293
 C       -11.5645942690       -2.9271797351       -7.5702032479
 C       -13.0040148323       -2.2687599017       -7.7921990662
 O       -13.2585774408       -1.8058501001       -8.8695986944
 C       -14.0484957685       -2.5947153687       -6.7215183405
 C       -14.9228431283       -1.4061223242       -6.3826195262
 C       -14.1030373917       -0.1977736005       -6.1438267011
 O       -12.9059428245       -0.1166377824       -6.3304702025
 C       -14.8013790291        1.0792892379       -5.5864886529
 C       -14.0393694064        1.5640616054       -4.2517190424
 O       -14.5708733830        1.5079569545       -3.1784183091
 C       -12.6028274651        2.1975819622       -4.3512778860
 C       -11.8567680770        2.0057974068       -3.0026530451
 C       -10.7553950053        3.0755642950       -2.8262127231
 O       -10.3927629322        3.7843889710       -3.7528521531
 C       -10.0609808981        3.2097519262       -1.4588192433
 C       -10.9980986997        4.2603341896       -0.7343480097
 O       -11.0293571856        4.1006268356        0.4527404101
 C       -11.8259481720        5.2840524244       -1.4323258876
 C        -9.9974766325        1.9140897745       -0.6225247390
 C        -8.5757348352        3.7793290242       -1.5882503097
 C       -14.7278994511        2.2678273232       -6.6431713432
 C       -16.2913486830        0.8019540230       -5.2119366930
 C       -11.9371586891       -4.4987316115       -7.3736319928
 C       -10.9869850123       -2.3162662122       -6.2863718250
 C       -12.3380406008       -0.2568105890      -13.1623301265
 C        -9.9912537265       -0.6376549772      -14.2383066810
 C        -6.2161592868        3.8018745214       -9.9262010653
 C        -5.0562316021        1.5022400565      -10.0135556638
 C        -6.3606657573        1.6289801774       -3.5643650078
 C        -4.0897957479        0.8506454550       -4.3636134888
 C        -6.6532980700       -5.8413828661       -7.1342752972
 C        -4.3824153551       -6.1399191946       -7.9681910482
 C        -3.6172950064       -1.4111877096      -13.3194950141
 C        -4.6225630537       -3.6336100999      -14.2426048345
 C         2.2126236729       -5.9684826839      -13.3078669282
 C         2.6565180357       -4.9148973436      -10.9106919025
 C         7.9605789657       -2.9167705951      -10.1161584261
 C         8.7733542733       -1.5027292213      -12.1404567839
 C        12.8416050257       -5.6247469930      -14.6361867820
 C        13.4215506329       -3.2542074586      -14.4369517620
 C         6.2319892908       -3.9108979863      -18.8068500038
 C         8.3129175341       -3.3275228827      -20.1284610335
 H         6.2502228575       -0.6843762152      -20.1670724648
 H         8.0926617385       -0.7718936184      -20.1360146489
 H         7.2593392804        0.4197948182      -19.1760217018
 H        10.1443327839       -2.5529182160      -17.6401910461
 H        10.2512179149       -3.9181911816      -18.7167141436
 H        11.9435582271       -4.4171687057      -17.2987147014
 H        10.7468153175       -5.4160905772      -16.6641618266
 H        11.1289966990       -6.1453054162      -12.4149951382
 H        10.2169401539       -5.5764135893      -13.7616503663
 H         9.9233660812       -4.3099861737      -11.0548602439
 H         8.9096727384       -5.7950038063      -11.2403672469
 H         5.1249510316       -2.2817344879      -10.4358798270
 H         5.2668628246       -3.9358203789      -11.3716878126
 H         4.2435060905       -1.8046672984      -13.0335926420
 H         3.3097544538       -1.9349968317      -11.4948237519
 H        -0.6496082125       -5.2813371396      -12.4119156413
 H        -0.1973444675       -4.9690550857      -14.0853770022
 H        -1.8208157953       -3.4527403602      -14.4253638124
 H        -1.1068837968       -2.3796630236      -13.1760667668
 H        -5.8729214143       -4.7860713842      -12.6112540883
 H        -7.0632682916       -3.9453903446      -11.6178473168
 H        -4.6375827503       -5.2114419261      -10.4111349123
 H        -6.2530708782       -5.9461106075      -10.5347433683
 H        -6.0853273287       -3.4839542446       -4.8208519260
 H        -7.0466430249       -3.1039097143       -6.2267870248
 H        -5.5861777687       -1.2728911672       -6.8080466988
 H        -4.4382438654       -1.7965113891       -5.4660741483
 H        -7.4637640274        2.7864855729       -5.5471932614
 H        -8.0576893011        1.2250454317       -5.6483257584
 H        -7.6130285606        3.4692701130       -7.7895452204
 H        -8.9880844525        2.2821128629       -7.6214637257
 H        -7.9788660221        3.4078314560      -11.9938069363
 H        -9.2267815397        2.6414065393      -10.8495809622
 H        -8.4955274044        0.9604278554      -13.1809234388
 H        -9.4889558760        2.3820230438      -13.6557607901
 H       -12.3692526694       -2.4161868906      -11.5964287031
 H       -11.6540933495       -1.1507028833      -10.4298123862
 H       -10.3235764383       -3.9390053617      -10.6065075258
 H       -12.0458212128       -3.8985946108      -10.1072868622
 H       -13.6002367507       -2.7849455503       -5.7581007144
 H       -14.6557180290       -3.3997946978       -6.9572422945
 H       -15.5061899179       -1.6786660187       -5.4737068694
 H       -15.6786487137       -1.1781117402       -7.1181806447
 H       -12.7640117412        3.2490930938       -4.7001021960
 H       -12.0671223745        1.8125264959       -5.2289863497
 H       -11.2342912355        1.1601612598       -3.2106872057
 H       -12.4825638690        1.8984714831       -2.0761352934
 H       -12.7888677153        5.0946603723       -1.0715084261
 H       -11.7164861021        5.4280874884       -2.4892279326
 H       -11.6168031545        6.2484278561       -0.9850931127
 H        -9.6136517627        1.1994858768       -1.3237142104
 H       -10.8309374781        1.4443429137       -0.2185133249
 H        -9.2627465860        1.9376045675        0.1644149515
 H        -8.2650769960        4.3784683427       -0.7241911922
 H        -8.3516179817        4.5197950413       -2.4043769500
 H        -7.8975319665        2.9108223582       -1.6858746937
 H       -14.1937578355        3.0832081353       -6.2639948724
 H       -15.7586363853        2.5580352944       -6.9460411475
 H       -14.1684442423        1.9640327541       -7.4998424072
 H       -16.2882068875        0.0696085493       -4.3814845673
 H       -16.8091023666        0.4097078899       -6.0225432062
 H       -16.7412534814        1.7792039183       -4.9356606250
 H       -12.7466434455       -4.7163970943       -8.0957785611
 H       -12.5201271222       -4.6592077516       -6.3851668049
 H       -11.1008501108       -5.2076924062       -7.5497292892
 H       -11.5052959600       -2.4846905345       -5.3631226520
 H       -10.8886964268       -1.2209818951       -6.4115357109
 H        -9.9897263497       -2.6722063363       -6.1912805363
 H       -12.7002379745        0.6879781387      -13.6810022002
 H       -12.7966227138       -0.2634306259      -12.1972194483
 H       -12.8164212436       -1.0355818945      -13.7114494394
 H        -9.0202732980       -1.1139704250      -13.9435546562
 H        -9.9183599055        0.2657209809      -14.7049740289
 H       -10.5463763149       -1.4243609862      -14.8277355481
 H        -5.5590952629        4.1170489571      -10.6836560643
 H        -5.9009130930        4.3088230572       -8.9772920818
 H        -7.1477374374        4.2534102559      -10.0993136789
 H        -5.0090252565        0.6029127320      -10.6680745639
 H        -4.7313221998        0.9693350871       -9.1151837972
 H        -4.1955487187        2.0978666988      -10.3317310852
 H        -6.2329499612        2.6730511739       -3.8298276898
 H        -5.9137715471        1.5229621855       -2.6630782249
 H        -7.3209862305        1.5274777564       -3.4211542200
 H        -3.9577575403        1.7692856540       -3.7780474109
 H        -3.6036952667        0.9858835774       -5.3879795491
 H        -3.7870342815       -0.0077493270       -3.7833544504
 H        -6.2849244260       -6.1700983557       -6.1969281837
 H        -6.9340485109       -6.6183545093       -7.7931274537
 H        -7.6039010585       -5.3194495512       -6.9297036851
 H        -3.4494851448       -5.6078856018       -8.1897960478
 H        -4.6482394547       -6.9529215722       -8.6295743434
 H        -4.3496056499       -6.6348436280       -6.9676475728
 H        -2.9557760013       -1.4460988617      -14.2370710135
 H        -3.1433816368       -0.8796218514      -12.5277957269
 H        -4.4629600696       -0.7755062150      -13.5857211726
 H        -5.5016873857       -3.0703907356      -14.5543220104
 H        -4.7843994495       -4.7040099284      -13.8888287386
 H        -3.9203689462       -3.5166368477      -15.0416798068
 H         1.7907699765       -5.7179502236      -14.2932423136
 H         1.5116642941       -6.6621016086      -12.7819122069
 H         3.2603513972       -6.4007750036      -13.4053282016
 H         3.4642157494       -5.6651942137      -10.8310923453
 H         1.8033241009       -5.2798217038      -10.3450250817
 H         2.9104626726       -3.9461946748      -10.4508716768
 H         7.4997310718       -3.8231751489       -9.7205742991
 H         7.5122530087       -2.0312941649       -9.5514844302
 H         8.9508467453       -3.0957721908       -9.7822217234
 H         9.8181448460       -1.6671872547      -12.2932643279
 H         8.7855798931       -0.7122652982      -11.3040682626
 H         8.3408530735       -1.0338925669      -13.0230628595
 H        12.1693690485       -6.3999399887      -14.1835884879
 H        13.7155824198       -5.8913689032      -14.1825353753
 H        12.8695055138       -5.9230279195      -15.6635809200
 H        14.1234007497       -3.5474796430      -15.2508629676
 H        13.8324954904       -3.1170973043      -13.4774774343
 H        12.9164189091       -2.3136833482      -14.6271419415
 H         5.4889206899       -3.2170522078      -19.2146471114
 H         5.8051750705       -4.0356886603      -17.8244236206
 H         6.2638171700       -4.7991825900      -19.3024131978
 H         9.2206463939       -2.6773695458      -20.1731047962
 H         7.7542065369       -3.1907257684      -21.1025813691
 H         8.8342401989       -4.3293838069      -20.3005251508
 Na        7.6653537850       -2.5306313677      -15.2882274517
 Na       -7.4603995619       -1.6815938631      -10.1385410931
