232

 C         6.7012811044       -0.7739292907      -19.4733384123
 C         7.1934621472       -1.8284343002      -18.4467910320
 O         7.2035287762       -1.6548366155      -17.2444100290
 C         7.5738551030       -3.3088307525      -19.0493708913
 C         8.6886039320       -3.8254919053      -17.8881762901
 O         8.3449280739       -4.3714269984      -16.8793141950
 C        10.1749286910       -3.5399350194      -18.1309684595
 C        10.9585255974       -4.1989721739      -17.0207612615
 C        10.8590734493       -3.6293721787      -15.5580550023
 O        10.0517077416       -2.7388475438      -15.3100769100
 C        12.0615227376       -4.1090360696      -14.5308611339
 C        11.4147613603       -4.0170019096      -13.0727923742
 O        11.5860018121       -2.9662633007      -12.4792782946
 C        10.6387375726       -5.2006361939      -12.4895436202
 C         9.5309697420       -4.7908365521      -11.5105950730
 C         8.4609554645       -3.9128589587      -12.3475891469
 O         7.9223663228       -4.2445966262      -13.3855493297
 C         7.9574769157       -2.5586210962      -11.7280006132
 C         6.4181774240       -2.4101497985      -12.3114953772
 O         6.2363146256       -2.0886696314      -13.4679498313
 C         5.4155444326       -2.6141981625      -11.2672028032
 C         3.9102629135       -2.4745230281      -11.6250505704
 C         3.3697039983       -3.5775689768      -12.7286643613
 O         3.7613613628       -3.3899465296      -13.8330131922
 C         2.1997527777       -4.6109318509      -12.4093329562
 C         0.8844576411       -3.7556044916      -12.4692308745
 O         1.0785124591       -2.5620455235      -12.3173529275
 C        -0.5082002534       -4.3223644101      -12.5817674643
 C        -1.5398342670       -3.4213362777      -13.2941423815
 C        -2.8134205905       -3.4030338688      -12.3910261409
 O        -2.8800571109       -4.1123852599      -11.4026325175
 C        -4.0514120795       -2.6697448796      -12.8593327309
 C        -5.1768170599       -2.7187481203      -11.8855183366
 O        -5.3862839559       -1.7810148225      -11.1578629412
 C        -6.0731611407       -4.0622491229      -11.6369820270
 C        -5.5065294372       -4.8595686863      -10.5093883946
 C        -5.8185302108       -4.2082787518       -9.1252187236
 O        -6.3317134550       -3.0954271848       -8.9321040950
 C        -5.3429371414       -5.0393287907       -7.8591838619
 C        -4.8693653494       -3.9716981393       -6.8214591383
 O        -3.6889115581       -3.7771265302       -6.6837447836
 C        -5.9194745291       -3.0731122972       -6.1294104420
 C        -5.2490385864       -1.7769945548       -5.8662268267
 C        -6.1484845940       -0.9504098709       -4.9118240658
 O        -7.0919416943       -1.3629704729       -4.3246495134
 C        -5.6321808782        0.5932587431       -4.5819828251
 C        -5.9948978751        1.2644265546       -5.9350370656
 O        -5.1149346816        1.3595954778       -6.7789618784
 C        -7.4577801256        1.4908634925       -6.2702841118
 C        -7.5367387869        2.2836445582       -7.5597009048
 C        -7.1777022664        1.3702923511       -8.7729345516
 O        -7.6183454031        0.2763654195       -8.7146878190
 C        -6.4376524627        2.0059626458      -10.0411490792
 C        -7.1406262180        1.6211646466      -11.2829752183
 O        -7.0776063142        0.4552199114      -11.7224244669
 C        -8.2171462681        2.5525781143      -11.9491748750
 C        -9.1571867027        1.8039646119      -12.8725719632
 C       -10.3533302426        1.0018526415      -12.2137577240
 O       -10.9758564406        1.4404685294      -11.2588744005
 C       -10.7796838171       -0.4820390954      -12.8121869508
 C       -10.3678232873       -1.5827504724      -11.8409520670
 O        -9.2583090094       -2.0835291461      -11.8462931015
 C       -11.4510519978       -2.1113568832      -10.8621851212
 C       -11.1483441459       -3.4609650652      -10.1702344315
 C       -10.6407550372       -3.0109238029       -8.7286859273
 O        -9.5547870419       -2.4817464089       -8.5689521239
 C       -11.6496433810       -3.0660054863       -7.4021155937
 C       -13.0574137910       -2.4136806154       -7.7387953952
 O       -13.1488167043       -1.8306001062       -8.7795510663
 C       -14.3364757470       -2.4996192085       -6.8887152871
 C       -15.0351321752       -1.1819568410       -6.7745547821
 C       -14.2935554037       -0.0735401102       -6.1654618887
 O       -13.0706911248       -0.0676103562       -6.2541186281
 C       -14.9528396348        1.1961510907       -5.4388161085
 C       -14.0835026579        1.3648266654       -4.1541922028
 O       -14.5238686621        1.0039179690       -3.0921870392
 C       -12.6515560750        2.1362860025       -4.1579599528
 C       -11.8707285507        1.8432975309       -2.9219903735
 C       -10.7948152500        2.9097818246       -2.8470609821
 O       -10.4000999045        3.4619086165       -3.8665958706
 C       -10.0673936543        3.3215431819       -1.5287543901
 C       -10.8957918186        4.2668321885       -0.6508937629
 O       -11.0099845819        4.0226790282        0.5021935267
 C       -11.4559408110        5.5087439042       -1.3258797502
 C        -9.6542239730        1.9976017748       -0.8213883759
 C        -8.7570996096        4.1345644861       -1.8281962068
 C       -14.7480808042        2.3593764866       -6.4605166719
 C       -16.4791443964        1.0524834546       -5.0446754762
 C       -11.7841949595       -4.5496967890       -6.9298344021
 C       -10.9778731440       -2.2378370539       -6.3119794836
 C       -12.3819951425       -0.4724405990      -12.9393868427
 C       -10.0469764731       -0.8255479832      -14.1140944944
 C        -6.3760179170        3.5607680156       -9.8031980380
 C        -5.0843764743        1.4222848537      -10.0714426326
 C        -6.1710318390        1.0271802646       -3.2530057146
 C        -4.0319974568        0.5660192219       -4.4528261426
 C        -6.5433263486       -5.8301739224       -7.3934183287
 C        -4.2494185976       -6.1666332633       -8.1861256160
 C        -3.7471713465       -1.1983563350      -13.1103001131
 C        -4.5246263083       -3.1652998394      -14.3449319039
 C         2.3663500559       -5.8808536525      -13.3285189537
 C         2.2661270167       -5.1376451694      -10.9425884988
 C         8.0641564069       -2.5761293365      -10.0995848850
 C         8.8263140488       -1.3618510190      -12.3136500368
 C        12.4699480531       -5.4790214529      -14.9380299937
 C        13.1622615007       -3.1258604177      -14.6064575709
 C         6.3075154574       -4.1210209504      -18.7365180067
 C         8.1560457287       -3.2995566700      -20.4600992638
 H         5.7319038833       -1.2433764086      -19.8401244832
 H         7.4389453656       -0.7981092758      -20.2266277052
 H         6.5412862968        0.2165878521      -19.0827008495
 H        10.4128268149       -2.4636042121      -18.1443419250
 H        10.3841499144       -4.0067727430      -19.1089992541
 H        12.0291126375       -4.4101793766      -17.1893699809
 H        10.5233332303       -5.2084258736      -16.8115160427
 H        11.4042037229       -5.8212608449      -12.0008298772
 H        10.3442064371       -5.7137583692      -13.3876781097
 H         9.9538802179       -4.0500228068      -10.8200537139
 H         9.0594267166       -5.6733081936      -11.0155946503
 H         5.5852990886       -1.8976298300      -10.5370015637
 H         5.5739928680       -3.6499425412      -10.9842790159
 H         3.8058900518       -1.5569919620      -12.1778156208
 H         3.3403491346       -2.5522021471      -10.7482820097
 H        -0.8202524632       -4.3150965206      -11.5118155731
 H        -0.4491889363       -5.3595330560      -12.9712942217
 H        -1.8506183906       -3.9415241854      -14.2055552237
 H        -1.1249423191       -2.4922364999      -13.5070538479
 H        -5.9763111634       -4.6868629409      -12.5670074111
 H        -7.0539588683       -3.6983826350      -11.5315742985
 H        -4.4694590607       -4.9982036277      -10.8021321159
 H        -5.9861562661       -5.8394727247      -10.4001419136
 H        -6.3303170749       -3.4515556009       -5.2092485556
 H        -6.8672636531       -2.8318390897       -6.6898286490
 H        -5.2864241914       -1.2715162350       -6.8736289559
 H        -4.2596268212       -1.9034385681       -5.3426591140
 H        -7.9212807085        2.0221040196       -5.3473792801
 H        -7.9391106080        0.4671186233       -6.1460417304
 H        -6.8963543081        3.1766767731       -7.4648757846
 H        -8.5580417279        2.7502843423       -7.6273344644
 H        -7.7382339863        3.2802073399      -12.6400730414
 H        -8.7059744905        3.0332981681      -11.1759523283
 H        -8.5957032788        1.1858861732      -13.5591650510
 H        -9.6665476243        2.5708876429      -13.5358271550
 H       -12.4352673977       -2.1578211087      -11.2681850336
 H       -11.4641062772       -1.4122386244      -10.0408121111
 H       -10.2605493863       -3.9558132803      -10.6204419332
 H       -11.8104025533       -4.3289253738      -10.1488746459
 H       -14.1270219389       -2.7724466844       -5.8045755967
 H       -15.0766682636       -3.2491354239       -7.3099669594
 H       -16.0730200663       -1.2897662075       -6.2499787334
 H       -15.3422021340       -0.9224783978       -7.7950053345
 H       -12.7486626435        3.1908572397       -4.3896705389
 H       -12.1517586842        1.7555270633       -5.0307017795
 H       -11.3472700263        0.8649353747       -3.0795189701
 H       -12.4948693105        1.8454813993       -2.0181822231
 H       -11.8806636455        6.3131398589       -0.6902395627
 H       -12.2509477432        5.0077567158       -1.9234642007
 H       -10.8331798458        5.9195555537       -2.1873306831
 H        -8.8142360417        1.4390596779       -1.2575016689
 H       -10.4246781707        1.2273096444       -0.7545893225
 H        -9.3894899689        2.1897983219        0.2630598146
 H        -8.4214922728        4.7398711995       -1.0023919762
 H        -8.8471214247        4.8302557210       -2.6710098433
 H        -7.9444450119        3.5038292290       -2.0222894514
 H       -15.6592039198        2.8436630135       -6.6919598262
 H       -14.4245042799        1.8921360863       -7.4142361392
 H       -14.0565471696        3.1886746851       -6.1408791911
 H       -16.6132717488        0.1990996466       -4.2870235199
 H       -17.0182796629        0.7979231220       -5.9619278315
 H       -16.9470036947        1.9179972519       -4.4850751311
 H       -12.1863941528       -5.1748529668       -7.6519317128
 H       -12.4329566575       -4.6717058883       -6.0481560761
 H       -10.8235802163       -4.8946514033       -6.7596535551
 H       -11.7456338892       -2.0868031172       -5.5088290011
 H       -10.6349606950       -1.2239625352       -6.6718800110
 H       -10.1527994512       -2.6924017797       -5.7567637750
 H       -12.8054665674        0.0740425674      -13.8136167340
 H       -12.7205953134        0.1069201549      -12.1030494809
 H       -12.9345440997       -1.3777012602      -12.9054144573
 H        -8.9691866448       -0.6503685816      -13.9465719085
 H       -10.4129771975       -0.2294116888      -14.8456551805
 H       -10.2265422203       -1.9071849655      -14.2726254128
 H        -6.1539495521        4.0822658552      -10.7071388708
 H        -5.4551100560        3.8440404171       -9.2683722849
 H        -7.2238419094        4.0590347053       -9.2796564497
 H        -5.0184784018        0.3143206881      -10.1180185864
 H        -4.5243502703        1.6302905142       -9.1529859499
 H        -4.4608816388        1.6425276942      -10.9598657212
 H        -5.7641420800        2.0825623431       -2.8399853228
 H        -5.9821564535        0.2685248517       -2.4697483950
 H        -7.1889857633        1.3076770711       -3.3179465877
 H        -3.6006086364        1.5482976447       -4.3285765430
 H        -3.7970403065        0.1582843228       -5.4354504241
 H        -3.7893458567       -0.1587286985       -3.7159506452
 H        -6.3543946973       -6.3462035224       -6.4603667251
 H        -7.0416481219       -6.3894407983       -8.1766060068
 H        -7.2953651536       -5.0354157188       -6.9777110891
 H        -3.5251328505       -5.7053612202       -8.8715956278
 H        -4.7081333381       -6.9949702157       -8.5919127517
 H        -3.7641306053       -6.6117544763       -7.2753486170
 H        -2.9594873529       -1.0104701553      -13.8821276625
 H        -3.5278439233       -0.5447063632      -12.3148134832
 H        -4.7038633383       -0.8260559327      -13.5406257148
 H        -5.4461494466       -2.6996809580      -14.6205590968
 H        -4.3779749854       -4.2287496413      -14.2739632363
 H        -3.7558640336       -2.8595383215      -15.0469450584
 H         2.6231949433       -5.5533565406      -14.3079355975
 H         1.4924702607       -6.4662910631      -13.4498894081
 H         3.2335801515       -6.3821995893      -12.9471547935
 H         3.2865973574       -5.2404249378      -10.6151335988
 H         1.7455425476       -6.0558125844      -10.8456446292
 H         1.7021835263       -4.4551319407      -10.3010987260
 H         7.5916251561       -3.4472703740       -9.5504018203
 H         7.5431780412       -1.6877953039       -9.7739686165
 H         9.0368166614       -2.5580825321       -9.6959129494
 H         9.8585998421       -1.6204220277      -12.0332315224
 H         8.6848389265       -0.3634100097      -11.8760736012
 H         8.8747653183       -1.2740937531      -13.3613243625
 H        11.8009870979       -6.0978518461      -15.5950853715
 H        12.6082367877       -6.1514838130      -14.1336815217
 H        13.3909287156       -5.4464072648      -15.5643018578
 H        13.4960410998       -3.0152806733      -15.7016539491
 H        14.0355291085       -3.5036168040      -14.0078927274
 H        12.8184863315       -2.2594493184      -14.0957200182
 H         5.3688316056       -3.7833876116      -19.2141901885
 H         6.0605678601       -4.1054213675      -17.6467208925
 H         6.5141297035       -5.1127913553      -19.0477619460
 H         8.9878646852       -2.6053643451      -20.4851248760
 H         7.4855997930       -2.9510221054      -21.2080580278
 H         8.3619848123       -4.2695133404      -20.8764556965
 Na        7.6976264604       -2.5968742123      -15.0228110675
 Na       -7.6609566413       -1.5000999456      -10.1030442983
