232

 C         6.5612784832       -0.8563158868      -19.3575670297
 C         7.2030389006       -1.9298020391      -18.4683937539
 O         7.2074178085       -1.6374472415      -17.2794024311
 C         7.6109814156       -3.3335828373      -18.9233434172
 C         8.7229277023       -3.8206729369      -18.0098239928
 O         8.3406536452       -4.4512032267      -16.9968263969
 C        10.2073216430       -3.5700067809      -18.2522089260
 C        11.0230185381       -4.1251824981      -17.0735268963
 C        10.7563515096       -3.6013778850      -15.6719869494
 O         9.9937174658       -2.7773540199      -15.2556414012
 C        11.9192629763       -4.0868560539      -14.6509575074
 C        11.3463676333       -3.9943885697      -13.0894609781
 O        11.5732071474       -3.0373496101      -12.4405373621
 C        10.6225759745       -5.1570827201      -12.4982554330
 C         9.5745173819       -4.5594116377      -11.5311301771
 C         8.4470337433       -3.8381776082      -12.3099488925
 O         8.1606443929       -4.3974667716      -13.2972035990
 C         7.9090120327       -2.4585525897      -11.7680585650
 C         6.4379760926       -2.3889664655      -12.2064130566
 O         6.1903882656       -2.1006550331      -13.3755037256
 C         5.3180071245       -2.6522647514      -11.1101421296
 C         3.7829744080       -2.4664463693      -11.4814653675
 C         3.3940408062       -3.4749390468      -12.6294268199
 O         3.8769061497       -3.4178088950      -13.7305412927
 C         2.2970931147       -4.5515178665      -12.2944643700
 C         0.9707609910       -3.6996458471      -12.4975389566
 O         1.1221280814       -2.4951342053      -12.4966138667
 C        -0.4678547348       -4.3534044410      -12.4976225323
 C        -1.4783342825       -3.4545572797      -13.1860733091
 C        -2.8163427876       -3.4275013495      -12.4429701711
 O        -2.9314110337       -4.0152669016      -11.3625368750
 C        -4.1058093939       -2.5610076123      -12.9401940680
 C        -5.2058552948       -2.6667332249      -11.8503253623
 O        -5.5699400316       -1.7214753826      -11.1717814429
 C        -6.0113693119       -4.0326457391      -11.7113208897
 C        -5.5624547002       -4.8163011676      -10.5442220654
 C        -5.7266114870       -4.1609332276       -9.1941001647
 O        -6.3166397601       -3.0857924490       -9.0663567745
 C        -5.3546812465       -4.9507447238       -7.9539733320
 C        -4.8248509944       -3.9871928892       -6.8900391914
 O        -3.6329483719       -3.7767582928       -6.6814769996
 C        -5.8278595577       -3.2335033813       -6.1041202916
 C        -5.2004872423       -1.8719447276       -5.7894079075
 C        -6.0036611489       -1.0689665614       -4.7888680307
 O        -7.1413196741       -1.4716134745       -4.5114440854
 C        -5.5542439419        0.3595297911       -4.5364086663
 C        -6.0196148963        1.0970596613       -5.8335281639
 O        -5.1982154354        1.4355076340       -6.6585914165
 C        -7.4828976185        1.4195163652       -6.1669125118
 C        -7.4490018621        2.2970031451       -7.4545664374
 C        -7.2516366978        1.4194687001       -8.7014192600
 O        -7.6073736213        0.2679654925       -8.7350902733
 C        -6.4850000666        1.9471847869      -10.0049260088
 C        -7.3927012995        1.4672565041      -11.3055114689
 O        -7.0947027724        0.4188853484      -11.7801719496
 C        -8.3571031473        2.4550004186      -12.0153216261
 C        -9.2582391161        1.7537859567      -13.0305944592
 C       -10.2923476254        0.8662197075      -12.2218852699
 O       -10.7787669051        1.4555189105      -11.2319207630
 C       -10.7912575832       -0.4697783988      -12.7667836160
 C       -10.3465996792       -1.6084801095      -11.7826850880
 O        -9.2532881501       -2.0639041322      -11.9387795572
 C       -11.4378945074       -2.1773314565      -10.9326084568
 C       -11.1798216499       -3.3134064626       -9.9917960525
 C       -10.6631466570       -2.9334142804       -8.5958286546
 O        -9.4863249816       -2.4513993501       -8.5859928999
 C       -11.5755208360       -2.9991830347       -7.2918267966
 C       -12.9791604885       -2.3752138557       -7.6970494784
 O       -13.1260456171       -1.9029193196       -8.8085382952
 C       -14.3124244498       -2.5028528480       -6.8472001498
 C       -15.1832459719       -1.2121561202       -6.7833728088
 C       -14.3433605686       -0.0430899794       -6.1390115148
 O       -13.1578892652       -0.1666652200       -6.2528322347
 C       -14.9018822591        1.2145129455       -5.4402021648
 C       -14.1110516253        1.3792247018       -4.0540750071
 O       -14.5054574843        0.8339554142       -3.0701712634
 C       -12.7559323938        2.0511757567       -4.1166075765
 C       -11.9223159465        1.9263883320       -2.8323975479
 C       -10.6552286144        2.8542744681       -2.9833053081
 O       -10.3948603984        3.3809364685       -4.0529106426
 C        -9.9792671316        3.2973176274       -1.5893928506
 C       -10.9568871905        4.2435296913       -0.6363720900
 O       -11.0702971738        4.0362497996        0.5871068142
 C       -11.4218679204        5.5666086787       -1.2710465155
 C        -9.5698075742        2.0293566459       -0.8421938011
 C        -8.7646163177        4.1472147093       -1.9256261849
 C       -14.7495673976        2.5346894202       -6.3239703044
 C       -16.3728284909        1.0412272288       -5.0663134979
 C       -11.7257903615       -4.5065576976       -6.9705358137
 C       -11.0397544495       -2.1980892235       -6.1305673573
 C       -12.3002998980       -0.3040487260      -13.0685961387
 C       -10.0658668452       -0.8274288600      -14.1217900934
 C        -6.3620031282        3.5344938817       -9.9934194429
 C        -5.0522076079        1.3395208397      -10.1908934554
 C        -6.1337852184        0.9144202180       -3.1908485748
 C        -3.9803537651        0.5747057397       -4.4537890165
 C        -6.5452085182       -5.7907583512       -7.3965314633
 C        -4.2399805311       -6.0315130911       -8.1610588524
 C        -3.6507151823       -1.0291169071      -13.0304087687
 C        -4.6362824453       -3.1605514632      -14.2534398088
 C         2.3523602708       -5.6521126231      -13.3773344775
 C         2.2248264817       -5.1344287481      -10.8607919300
 C         7.9739859552       -2.4579623596      -10.2778191980
 C         8.7598948158       -1.4272126089      -12.3848340980
 C        12.4625087020       -5.5349246114      -15.0211702063
 C        13.0181479335       -3.0137920610      -14.7817446036
 C         6.4134436987       -4.2521212703      -18.7694542841
 C         8.0054867361       -3.2429566437      -20.3880391894
 H         5.6910687864       -1.2126952626      -19.8922479738
 H         7.3375013004       -0.4579557936      -19.9815052345
 H         6.2941455338       -0.0680968981      -18.6021373666
 H        10.3627265871       -2.4898240055      -18.2322878194
 H        10.5083239187       -4.0145623540      -19.2175965092
 H        12.0757831636       -3.8828933678      -17.1308428882
 H        11.0498937286       -5.1608838677      -16.9972972949
 H        11.3246901804       -5.7473395960      -11.9312119727
 H        10.2413629732       -5.7188651490      -13.3315815948
 H        10.0309937882       -3.9032224513      -10.7954475512
 H         9.0672099254       -5.4333325491      -11.0515741156
 H         5.4378317606       -1.8491564112      -10.3488247238
 H         5.4340491017       -3.6739888261      -10.7658738181
 H         3.7084613050       -1.5442380501      -11.9022699615
 H         3.1700402410       -2.7420594070      -10.6582160387
 H        -0.7895444419       -4.4118911985      -11.4012871464
 H        -0.3720058457       -5.3258823060      -12.9659948011
 H        -1.6238758161       -3.7283089860      -14.2353588336
 H        -1.1033311230       -2.4256129218      -13.0612561609
 H        -5.8420087462       -4.6467392069      -12.5420519781
 H        -7.0362365570       -3.7533980706      -11.7191761005
 H        -4.5995206682       -5.2611253045      -10.8156791777
 H        -6.2830116128       -5.6288063943      -10.4286415670
 H        -6.0970748216       -3.7349671633       -5.1058735435
 H        -6.7831993198       -3.1642442734       -6.5798688504
 H        -5.1399223892       -1.3301000689       -6.7088151872
 H        -4.1981446233       -2.1275630887       -5.2786042628
 H        -7.9941135779        1.7677322406       -5.2794459251
 H        -7.9851113160        0.4212314414       -6.3376628011
 H        -6.7632097097        3.2258001196       -7.4477890527
 H        -8.4161900336        2.7940405665       -7.5825090652
 H        -7.7244474019        3.1960132167      -12.5561930603
 H        -8.9280357615        2.9585281578      -11.2047862454
 H        -8.6436160740        1.1037622273      -13.6724848117
 H        -9.7676481522        2.4299728781      -13.7051823236
 H       -12.2221914066       -2.5071591011      -11.6415264321
 H       -11.8703326094       -1.3508954724      -10.2909239977
 H       -10.3899640306       -3.9565495521      -10.3722980262
 H       -11.9306749550       -4.1322205534       -9.9114742550
 H       -14.0928761242       -2.7147698269       -5.7674799832
 H       -14.9040795478       -3.3087354442       -7.2701793558
 H       -16.2027995968       -1.3354656700       -6.3844315075
 H       -15.4023653967       -0.9988681041       -7.8837836757
 H       -13.0914431540        3.1174257277       -4.2045472851
 H       -12.2795502670        1.8880489812       -5.1023439352
 H       -11.6433224988        0.8931048869       -2.6552627853
 H       -12.5244239958        2.3304906435       -1.9478289592
 H       -11.1408818916        6.3311434151       -0.5561998639
 H       -12.5140113572        5.6249049622       -1.5081061937
 H       -10.9338398186        5.7523756693       -2.2198865546
 H        -8.6741750261        1.5439120345       -1.2120035437
 H       -10.3066152435        1.2494454860       -0.8864185478
 H        -9.4267337450        2.1801725746        0.2215410724
 H        -8.3179878309        4.5168279502       -1.0107645300
 H        -9.1372081923        5.0334760468       -2.4250957473
 H        -7.9138308604        3.7799583136       -2.4830057152
 H       -15.6676344623        2.6849195153       -6.9108462143
 H       -13.9601852011        2.3933504403       -7.0982603177
 H       -14.6004033874        3.3810807038       -5.7682708387
 H       -16.6699883946        0.0627487509       -4.5939203126
 H       -17.0267915410        1.2622655206       -5.9205578437
 H       -16.5572888049        1.7626520649       -4.1844688372
 H       -11.9886121606       -5.0707840283       -7.8628243268
 H       -12.5900844133       -4.5996391206       -6.2938662990
 H       -10.8515585194       -4.9993116450       -6.5508918295
 H       -11.6692484417       -2.3171679890       -5.2329812351
 H       -10.8194769924       -1.0926226858       -6.3175775579
 H       -10.0684579254       -2.6612012245       -5.7844040430
 H       -12.5787238128        0.4903553176      -13.7815577404
 H       -12.9073265744       -0.1017158008      -12.2348717934
 H       -12.6631778244       -1.2095405604      -13.4648534873
 H        -9.0319641618       -0.7120185496      -13.9028222798
 H       -10.3490094541       -0.2313477314      -14.9618260477
 H       -10.3159034655       -1.8818756316      -14.2703273175
 H        -6.0205452070        3.7687704753      -10.9493086129
 H        -5.5049471056        3.9477604765       -9.4287896419
 H        -7.2122707916        4.0426780602       -9.7709078154
 H        -4.8487125421        0.2314723388      -10.0947141962
 H        -4.3027296356        1.7654719168       -9.4998742504
 H        -4.6576193052        1.4282214689      -11.2355219433
 H        -5.6174958890        1.5964134433       -2.7419695130
 H        -6.2829996603        0.1454440772       -2.5199866522
 H        -7.0490620217        1.4393168839       -3.4109808006
 H        -3.8829792117        1.6736959605       -4.5248151437
 H        -3.5517263921        0.1007158477       -5.3970739231
 H        -3.6168058749        0.1262690286       -3.5243325608
 H        -6.3505921437       -6.2671088122       -6.4194331237
 H        -6.9125253268       -6.4896639741       -8.1980914526
 H        -7.3482326705       -5.1401167707       -7.1575416756
 H        -3.4419087604       -5.4079290797       -8.5168359923
 H        -4.4594079400       -6.8667867409       -8.8672279574
 H        -4.0014979014       -6.5558662790       -7.2572991314
 H        -2.6281759138       -0.7776933663      -13.4181837075
 H        -3.5858078658       -0.7141793781      -11.9715066809
 H        -4.3343484998       -0.3082188315      -13.4438604239
 H        -5.5674504233       -2.6577300721      -14.5149688203
 H        -4.5739912884       -4.2560724483      -14.0287578024
 H        -3.8958213456       -3.0640499829      -15.0254409517
 H         2.3143406241       -5.1868445007      -14.3565884720
 H         1.4705572044       -6.3164612369      -13.3573793110
 H         3.3303155460       -6.1785042141      -13.2881308142
 H         3.2109911739       -5.2907042310      -10.4704794240
 H         1.6165322871       -6.0003643614      -10.7854573346
 H         1.7404128916       -4.4001571031      -10.2690414478
 H         7.4951573271       -3.2919007354       -9.8054896451
 H         7.4863253182       -1.4845963243       -9.8721933784
 H         9.0195101361       -2.4192746163       -9.9191836671
 H         9.6717786273       -1.2614303911      -11.9492306994
 H         8.2211472128       -0.4244819673      -12.3443312799
 H         8.9906286541       -1.6501954542      -13.4297403786
 H        12.0600693908       -6.2131169600      -15.8329415738
 H        12.5391932904       -6.1970863643      -14.1715268533
 H        13.4576630287       -5.3919970907      -15.3891375796
 H        13.1878822290       -2.7347999301      -15.8338607941
 H        13.9014116416       -3.4402072471      -14.4712533695
 H        12.7602057733       -2.1870936206      -14.0154304149
 H         5.7644317174       -4.0145077375      -19.5926707727
 H         5.8252828662       -4.1645885099      -17.9230030788
 H         6.7360532188       -5.2147799575      -18.9483451527
 H         8.7779703617       -2.5170758024      -20.6860060705
 H         7.1216481018       -2.9924795470      -21.0674105252
 H         8.1442848901       -4.2867768843      -20.7829590834
 Na        7.8004089805       -2.6750734428      -15.1371798586
 Na       -7.6321636636       -1.5181671360      -10.0124703009
