232

 C         6.4427634135       -0.9207931639      -19.3441094969
 C         7.0454057499       -1.8740244933      -18.2557204791
 O         7.2578968898       -1.6211473617      -17.0973452846
 C         7.5163310009       -3.3524004260      -18.9572485214
 C         8.6642382957       -3.8724250243      -18.0207014082
 O         8.4060706283       -4.5346602269      -17.0133946971
 C        10.1298710910       -3.4552873033      -18.2784430899
 C        11.1394472121       -4.0124498093      -17.2053002235
 C        10.8856530487       -3.6083705286      -15.6996885336
 O        10.0032975384       -2.8656236736      -15.3586574403
 C        11.8995869030       -4.0414654683      -14.6298540710
 C        11.3750267407       -4.0051660170      -13.2043785748
 O        11.6282917125       -3.0118975521      -12.5555605874
 C        10.5452685600       -5.2489131333      -12.4495883050
 C         9.6816256254       -4.5372108259      -11.4311009192
 C         8.4925667848       -3.9562933942      -12.2688690106
 O         8.2263384604       -4.3324263378      -13.4152371698
 C         7.8620437107       -2.5112076548      -11.7115918231
 C         6.3550799489       -2.3591152623      -12.1817599993
 O         6.0312247318       -2.1209883721      -13.3221307581
 C         5.2776304832       -2.6007478210      -11.0596075414
 C         3.8237764244       -2.4776541329      -11.4376298461
 C         3.4517297767       -3.4750009237      -12.4972032762
 O         3.9811985454       -3.4884108159      -13.6227343388
 C         2.2732743050       -4.4386341725      -12.2377715982
 C         1.0011219793       -3.5770007609      -12.4940224251
 O         0.9893703023       -2.3937147683      -12.7047142887
 C        -0.3404838945       -4.3191038518      -12.4697050901
 C        -1.4546720252       -3.3874245024      -13.0799789973
 C        -2.8134965976       -3.3709005824      -12.3385980149
 O        -2.9868552700       -3.9508500349      -11.3170484729
 C        -4.0620258238       -2.5475892199      -12.8929239386
 C        -5.2898751739       -2.6206219798      -11.9038107318
 O        -5.6075893183       -1.6159644531      -11.2811784092
 C        -6.0287697577       -3.9641229191      -11.8635570975
 C        -5.6950809155       -4.9330191890      -10.6095117536
 C        -5.8198350645       -4.2634863101       -9.1844528678
 O        -6.2561344625       -3.1726349015       -9.0341560801
 C        -5.2674127837       -4.9877821809       -7.9718434103
 C        -4.7269784403       -4.0817575367       -6.8783200683
 O        -3.5310660285       -3.9031534854       -6.7840351007
 C        -5.7040203607       -3.3259478057       -6.0235974905
 C        -5.0947222185       -1.9594619937       -5.6295968401
 C        -6.0406120749       -1.1030731378       -4.7594006489
 O        -7.1772325253       -1.5094892112       -4.5226128460
 C        -5.5201660436        0.3197080635       -4.5220700746
 C        -5.9484315382        1.1269463213       -5.7222878168
 O        -5.1341170386        1.4626851051       -6.5603547912
 C        -7.5394690272        1.4104587917       -6.1535497382
 C        -7.4761000894        2.2316226184       -7.4311702637
 C        -7.2342397116        1.4621400358       -8.6626839790
 O        -7.6144374721        0.2742538910       -8.6276545272
 C        -6.5604031933        2.0024144670      -10.1278400400
 C        -7.4338504778        1.4385652000      -11.3441635104
 O        -7.2762708289        0.3356457313      -11.7953317073
 C        -8.3260071170        2.4307973716      -11.9845214246
 C        -9.1958457348        1.7560953571      -13.0417881148
 C       -10.2776433370        0.9196190635      -12.2590365730
 O       -10.6403718726        1.2657096281      -11.2105454950
 C       -10.7274263321       -0.4993793731      -12.8824998462
 C       -10.3799759713       -1.6776676105      -11.8648168984
 O        -9.2065939632       -2.0541488603      -11.7814986704
 C       -11.5170924349       -2.2217987813      -10.9965140646
 C       -11.1397686203       -3.2385225408       -9.8813448661
 C       -10.5972423270       -2.7051506048       -8.5423351142
 O        -9.4545908093       -2.3713542385       -8.3626600522
 C       -11.6251993667       -2.9054520104       -7.2841179458
 C       -13.0355023407       -2.3469744105       -7.7099280072
 O       -13.2560108100       -1.8593855911       -8.8213014216
 C       -14.1912304782       -2.5146133845       -6.7218742735
 C       -15.1624146216       -1.2385826293       -6.7634408384
 C       -14.2973529573       -0.0119476623       -6.2277435364
 O       -13.0832461624       -0.1758540806       -6.2334182682
 C       -14.9505640895        1.2063030791       -5.4184163172
 C       -14.0985870127        1.2479785610       -4.0201055541
 O       -14.5320404821        0.6566151451       -3.0436239797
 C       -12.8261825624        2.0720022911       -4.1130018482
 C       -11.9937775107        2.1295955936       -2.7979139392
 C       -10.7218905330        3.0018083970       -2.9527556967
 O       -10.3056576252        3.2410535977       -4.0598833004
 C        -9.9857414882        3.3586310961       -1.6309350450
 C       -10.8280089321        4.2442415516       -0.7063542844
 O       -11.1092082455        3.9106755554        0.4220907316
 C       -11.4217745896        5.5542736041       -1.2087551016
 C        -9.5127616421        2.0829658030       -0.7985358918
 C        -8.7115400236        4.1554767228       -2.0168324428
 C       -14.7266000877        2.5180378977       -6.1695685766
 C       -16.4379183792        1.0397976669       -5.0631364399
 C       -11.7069384734       -4.4116079614       -7.0258763231
 C       -11.0115199894       -2.2237298398       -5.9834351740
 C       -12.1957820546       -0.1930112160      -13.1478137623
 C       -10.1170095313       -0.8353248181      -14.2805035255
 C        -6.3889755038        3.4908344063      -10.1918334707
 C        -5.2408757739        1.3283131152      -10.1988305996
 C        -6.2382881191        0.8418550516       -3.1672396879
 C        -3.8867251537        0.5019529960       -4.4023457133
 C        -6.6413902673       -5.7405476525       -7.4240711352
 C        -4.0489874798       -5.9930942074       -8.2536283690
 C        -3.5797426297       -1.0185355309      -12.9926608715
 C        -4.5952431220       -3.0365520575      -14.2790076401
 C         2.3115970785       -5.5108031953      -13.4235391606
 C         2.2702486912       -5.1101567718      -10.8356919864
 C         8.0082589007       -2.3012630922      -10.1954579214
 C         8.6941909332       -1.3498298332      -12.4637320464
 C        12.4477400839       -5.5158448167      -14.8767726940
 C        12.9299020472       -2.8833719237      -14.9418306472
 C         6.3827946343       -4.4003321077      -18.8530886236
 C         7.9947244690       -3.2020176976      -20.5090170206
 H         5.8930503919       -1.5136791620      -20.0309705544
 H         7.3474387313       -0.4429554331      -19.8491730718
 H         5.8716367973       -0.1568673441      -18.8385763513
 H        10.1714646556       -2.3895758698      -18.4916362425
 H        10.4404923519       -4.0450117718      -19.1436026563
 H        12.1667174187       -3.8096595751      -17.4442719161
 H        11.1212606849       -5.0814251346      -17.2434516710
 H        11.2577113156       -5.9003967242      -11.9580153469
 H         9.8940189720       -5.8238151864      -13.1446416669
 H        10.1314711847       -3.6783190098      -10.9059468825
 H         9.2765366889       -5.2479422739      -10.7252632528
 H         5.3711004665       -1.8458149624      -10.2036956642
 H         5.3966110371       -3.6542927025      -10.7532462697
 H         3.6855259774       -1.4928629298      -11.9127323890
 H         3.2281671595       -2.8469957068      -10.5974588134
 H        -0.6202044003       -4.6264814061      -11.4530310258
 H        -0.1561824803       -5.1408055208      -13.1805772759
 H        -1.6437974454       -3.6962929144      -14.1202544609
 H        -1.1156923941       -2.2826469954      -12.9859059821
 H        -6.0063235847       -4.4901175244      -12.7754178985
 H        -7.0870411924       -3.6232622304      -11.7707225660
 H        -4.6051450634       -5.1337830324      -10.6227527254
 H        -6.2268591548       -5.8761363624      -10.7711434484
 H        -6.0363749863       -3.9073411558       -5.1192590817
 H        -6.6274412087       -3.2393875142       -6.5771367902
 H        -4.8689152411       -1.3903308808       -6.5265895245
 H        -4.2106478445       -2.1921727108       -5.0604319625
 H        -7.9679785907        1.9142196409       -5.3551769625
 H        -8.1169399244        0.5289137038       -6.2201891827
 H        -6.8492915228        3.1205294430       -7.3173383071
 H        -8.4349805793        2.7109477152       -7.6786523145
 H        -7.7412435122        3.2454367713      -12.4124006988
 H        -9.0371303813        2.8495099288      -11.1522619546
 H        -8.7108018299        1.0327747837      -13.7207385851
 H        -9.6301977961        2.4730309621      -13.6912659057
 H       -12.1702585299       -2.8163442671      -11.7188067706
 H       -12.1147931834       -1.3864626903      -10.5223105470
 H       -10.6401266639       -4.1430455482      -10.2231392065
 H       -12.0129422168       -3.7633944476       -9.5394122028
 H       -13.8730083892       -2.6298933991       -5.7270559051
 H       -14.7294022675       -3.3752013522       -7.0583389929
 H       -16.0095352325       -1.3141866848       -6.1628044288
 H       -15.5879597503       -1.1997540278       -7.7861837989
 H       -13.2195981452        3.0496077559       -4.4975534904
 H       -12.2227268779        1.6795251143       -4.9798654537
 H       -11.5860833181        1.1133061760       -2.7476119997
 H       -12.5321344471        2.3259950122       -1.8530086616
 H       -10.6811887515        6.2554299841       -0.8056879823
 H       -12.3695176048        5.7677843651       -0.7305980106
 H       -11.5157764537        5.7075063888       -2.2378808288
 H        -8.6297399645        1.6262229876       -1.1902863361
 H       -10.2329170998        1.2848295063       -0.6996774965
 H        -9.3114360765        2.3593976776        0.1785006630
 H        -8.0581156816        4.2362790835       -1.1191208342
 H        -9.0233357416        5.1543359222       -2.2755446379
 H        -7.9960200071        3.8447361782       -2.8236419935
 H       -15.1231562803        2.4812016269       -7.2073332953
 H       -13.7285753382        2.7812588161       -6.2830916207
 H       -15.2493558926        3.2955461871       -5.6299464328
 H       -16.7047964741        0.0714763257       -4.7069469289
 H       -17.1416655001        1.3236666425       -5.9011873487
 H       -16.6062320436        1.6271979548       -4.1874890291
 H       -11.8717742110       -5.1289354262       -7.9172678208
 H       -12.5603927410       -4.4872942623       -6.3635794181
 H       -10.8149652073       -4.8335048338       -6.4425424888
 H       -11.4414444996       -2.5288066495       -5.0233176784
 H       -10.9478448672       -1.1674638030       -6.0132456708
 H        -9.9528723162       -2.5941783178       -5.9046833543
 H       -12.4053227489        0.7529048940      -13.5159679115
 H       -12.9108789971       -0.2876729587      -12.3285426605
 H       -12.5597501092       -0.9427819965      -13.8640539938
 H        -9.1074592474       -1.1159118191      -14.0874878070
 H       -10.1136840939        0.0431596334      -15.0604482158
 H       -10.7459622478       -1.5981999898      -14.6810492008
 H        -5.7014272079        3.7591652307      -10.9872509835
 H        -5.8741739473        3.8577103680       -9.3751981757
 H        -7.3485257384        3.9750567335      -10.3243035231
 H        -5.2452677687        0.2586446281      -10.0358939737
 H        -4.3957314675        1.6851360334       -9.5632031040
 H        -4.8433219705        1.2382101019      -11.2073378425
 H        -5.6697254772        1.4964209810       -2.4953844893
 H        -6.5021542001        0.0208541496       -2.6179927123
 H        -7.0790729171        1.3839245624       -3.4423958274
 H        -3.8382307513        1.6084045066       -4.4952501461
 H        -3.4092875837        0.0113525314       -5.2382623182
 H        -3.5780538387        0.1113803686       -3.3801351210
 H        -6.6816012429       -6.1215146833       -6.3976887947
 H        -6.9247452889       -6.5304840666       -8.1561093421
 H        -7.3905873744       -5.0166281937       -7.4677039193
 H        -3.2064937044       -5.3245141495       -8.3544124056
 H        -4.1711235817       -6.6249596242       -9.1999969741
 H        -3.9323862435       -6.7335730256       -7.5113446133
 H        -2.6125782117       -0.8771888938      -13.4103388949
 H        -3.4272914541       -0.6473483778      -11.9226032925
 H        -4.2541108011       -0.2748058869      -13.4028674238
 H        -5.4660394550       -2.3606024584      -14.2905600387
 H        -4.6991706928       -4.1054612568      -14.2307784640
 H        -3.9370949670       -2.8891756081      -15.1619137188
 H         2.0341824952       -5.0841977552      -14.4323231351
 H         1.5546124796       -6.3197604301      -13.2313086590
 H         3.3422764858       -5.9126472410      -13.4584209834
 H         3.2762053978       -5.4692943093      -10.7104017511
 H         1.5236007863       -5.9005380975      -10.7214881652
 H         2.1103250091       -4.3880184989      -10.0657982913
 H         7.5663715156       -3.0553653145       -9.5289478161
 H         7.6388743106       -1.3286727535       -9.8592538935
 H         9.1520105817       -2.2180003817      -10.0230808112
 H         9.5582642024       -0.8456174499      -11.9751464067
 H         7.9564519415       -0.5980791284      -12.5825279066
 H         9.0977949309       -1.5901628354      -13.4880910694
 H        11.8821696999       -6.1691419669      -15.4675802293
 H        12.7068254716       -6.0427887490      -13.8905257827
 H        13.3753639641       -5.4612759355      -15.4254202309
 H        13.0512088404       -2.7075716807      -15.9579485056
 H        13.9359004655       -3.3017703871      -14.6804810415
 H        12.7047192035       -2.0233139357      -14.3043300028
 H         5.7170278543       -4.2957997915      -19.6508767346
 H         5.8433367348       -4.2472763948      -17.9804211603
 H         6.7565492707       -5.4367374302      -18.9239403183
 H         8.7976769339       -2.4911926045      -20.8665222052
 H         7.1733732727       -3.0462989226      -21.2763060153
 H         8.1687332670       -4.2712306182      -20.7720399882
 Na        7.7471523595       -2.8222450550      -15.2854618245
 Na       -7.7098965840       -1.5868954427      -10.0437510607
