232

 C         5.9586482079       -1.1120710654      -19.1151634905
 C         6.7646915453       -2.0763268309      -18.1363401433
 O         6.7597423392       -1.9231438150      -16.9504175161
 C         7.4760024770       -3.3500043489      -18.8475092627
 C         8.5871389930       -3.9273378847      -17.9737712945
 O         8.2878598160       -4.6810962015      -17.0755549893
 C        10.0010097422       -3.3959464330      -18.2065852762
 C        11.0135269860       -4.0606296732      -17.2488300505
 C        10.9510520616       -3.5669227982      -15.7203287922
 O         9.9641418093       -3.0202032729      -15.2187347624
 C        12.1879751987       -3.9437747815      -14.8095514247
 C        11.5724658635       -3.7206212345      -13.3920221243
 O        11.4201434263       -2.5843636706      -12.8964712223
 C        10.7255957659       -4.9213349654      -12.7487167499
 C         9.7956234919       -4.3662417028      -11.6769245969
 C         8.7098980242       -3.5295297078      -12.3790009232
 O         8.2124271205       -4.0210630963      -13.4123495459
 C         8.0311924940       -2.3168651579      -11.7827101980
 C         6.5108497831       -2.3061022967      -12.2150857896
 O         6.2123244251       -2.1729010211      -13.3759365679
 C         5.4429530692       -2.3364650669      -11.1961966412
 C         4.0585072348       -2.3679249273      -11.8377321718
 C         3.6018488161       -3.6343699112      -12.7046694903
 O         4.3707537110       -4.1938953563      -13.4275976319
 C         2.2441409198       -4.3148583407      -12.3824760432
 C         1.0010022474       -3.3530409556      -12.5949762990
 O         1.0882292581       -2.1961112073      -12.8990013643
 C        -0.4206954754       -3.8787112441      -12.1405400592
 C        -1.5949757412       -3.2918831400      -13.0366577765
 C        -2.8976550093       -3.2755701657      -12.2299007542
 O        -2.9193079904       -3.8657297889      -11.1895596746
 C        -4.0306160537       -2.3526468077      -12.7842108213
 C        -5.3388127255       -2.5965571310      -11.9723112290
 O        -5.8654231003       -1.6389370066      -11.4294436907
 C        -6.0892553455       -3.9420621431      -11.8991837378
 C        -5.6645449408       -4.8705547586      -10.7144419599
 C        -5.8104576619       -4.3175210862       -9.2730429802
 O        -6.4566450932       -3.3843028473       -8.9344207578
 C        -5.1904689985       -5.3071607023       -8.1243821468
 C        -4.5580107339       -4.3001288360       -7.0931758366
 O        -3.3590929246       -4.2302585741       -7.0654427834
 C        -5.5034587636       -3.4079263403       -6.1804420609
 C        -4.8305652633       -2.3146699422       -5.3670413607
 C        -5.9223556595       -1.2909612131       -4.8328262735
 O        -7.0518834949       -1.6681497215       -4.7464183311
 C        -5.5802739545        0.2159266712       -4.5106784313
 C        -5.7266525132        1.1248066047       -5.7420310360
 O        -4.7536244308        1.5592208978       -6.3522594965
 C        -7.2958543412        1.5559813944       -5.9915848050
 C        -7.3904026139        2.3196291521       -7.3069090744
 C        -7.3076267456        1.4039349963       -8.4534769011
 O        -7.6234880834        0.2147377797       -8.4198446961
 C        -6.7175352046        1.9453664670       -9.8308092285
 C        -7.6732362961        1.4322708583      -11.0483023605
 O        -7.8696747172        0.2543455873      -11.2301804490
 C        -8.2416293343        2.3862764971      -12.1355113764
 C        -9.2626696881        1.7252322289      -13.0261144095
 C       -10.2271854227        0.7265981915      -12.3424735231
 O       -10.4724543069        0.8950291038      -11.2131397654
 C       -10.7870596874       -0.5966738054      -13.0342500393
 C       -10.4092517292       -1.6611781442      -12.0275945666
 O        -9.3079904230       -2.2591821633      -12.1445993281
 C       -11.3344754456       -1.9397673244      -10.8997312309
 C       -10.9754954795       -3.1580169951       -9.9213160128
 C       -10.6365054228       -2.4459456817       -8.5663938888
 O        -9.7318508685       -1.6618950930       -8.5221411616
 C       -11.5018161854       -2.7874606608       -7.4376233316
 C       -13.0165980513       -2.1686315153       -7.6167349964
 O       -13.4045646730       -1.7089110165       -8.6575304235
 C       -13.8706936750       -2.5599209226       -6.4245417358
 C       -14.7906044762       -1.4218946617       -5.9569815462
 C       -14.2156859082       -0.0224110207       -5.9588465670
 O       -13.1401460022        0.2167677044       -6.4921445421
 C       -14.9903916003        1.1595845130       -5.2404550996
 C       -14.1078140497        1.3147098469       -3.9980781365
 O       -14.2972934206        0.5607983604       -3.0665683934
 C       -13.0076286251        2.3587145481       -4.0729329744
 C       -12.2105986291        2.3284954567       -2.7054507094
 C       -10.7679352732        2.7773242762       -2.8316197817
 O       -10.2746911245        2.7508532320       -3.9353673390
 C        -9.9006863993        3.3772670615       -1.7206672225
 C       -10.8324547458        4.1115513324       -0.7448161975
 O       -11.3293151558        3.5709440700        0.1588396874
 C       -11.1249974846        5.6272836882       -1.1980641351
 C        -9.2346586764        2.1787894887       -0.9602777763
 C        -8.7621296764        4.3323400633       -2.2874773620
 C       -14.9669169909        2.4504627296       -6.0577074406
 C       -16.3876823078        0.9048195205       -4.7550023848
 C       -11.5863611416       -4.3247788728       -7.1960950384
 C       -10.8565662399       -2.1176961023       -6.1731140707
 C       -12.2895438496       -0.4582407723      -13.4020916930
 C       -10.1380366386       -1.0072096110      -14.3287387752
 C        -6.5637591936        3.4885680331       -9.9347595429
 C        -5.3473698357        1.2829619156      -10.1427894760
 C        -6.6636263905        0.6914186251       -3.4754077664
 C        -4.1803150266        0.3749572738       -4.0088411270
 C        -6.3035472307       -6.0226438608       -7.4310351411
 C        -4.0938539410       -6.0638633221       -8.7469120806
 C        -3.6587226432       -0.8566862962      -12.6737874087
 C        -4.4182173915       -2.7733131303      -14.2340188837
 C         2.1159916535       -5.4389474370      -13.3872998381
 C         2.0952122113       -4.8411291728      -10.8819170514
 C         8.3979113506       -2.1361028486      -10.2950587115
 C         8.7892639563       -1.0706319860      -12.3863766053
 C        12.6359156991       -5.4598968964      -15.0158377695
 C        13.3581278412       -2.9349022173      -15.0637984684
 C         6.2892640142       -4.4126350698      -18.9089541876
 C         7.8822085101       -3.1022919870      -20.2708553349
 H         5.4562157010       -1.8054590518      -19.7525330969
 H         6.6675793183       -0.5893213720      -19.8075544412
 H         5.4245547510       -0.4857316698      -18.4939476881
 H        10.0858282552       -2.3054774871      -18.2317977240
 H        10.2996222368       -3.8019286741      -19.1754197061
 H        11.9968879139       -3.8398787932      -17.5882643072
 H        10.9359347560       -5.1211473164      -17.1848036364
 H        11.4756922164       -5.4771250870      -12.2219257814
 H        10.2615240328       -5.5255680036      -13.5233529858
 H        10.4056181886       -3.7605034826      -10.9752336033
 H         9.2701617788       -5.1184469504      -11.0915496630
 H         5.4827792693       -1.4148561479      -10.5224230302
 H         5.6208070875       -3.1287861447      -10.4754122020
 H         3.9981100487       -1.6080143005      -12.6259748077
 H         3.3264325040       -2.2238685120      -11.0891406854
 H        -0.5565930080       -3.4859453680      -11.1314648685
 H        -0.4439031008       -4.9680344119      -12.2925522280
 H        -1.6897275505       -3.8971460951      -13.8951681315
 H        -1.3863658705       -2.2353036238      -13.1976374197
 H        -6.0845005354       -4.4560450770      -12.7967340281
 H        -7.1185311244       -3.6646293793      -11.7849807912
 H        -4.6690915222       -5.2715540499      -10.7954150590
 H        -6.2947688880       -5.7517011474      -10.7720932960
 H        -6.0023762403       -4.1380044827       -5.4858886368
 H        -6.2879979593       -2.9432781120       -6.8131229800
 H        -3.9642966402       -1.7998493585       -5.8194622377
 H        -4.3344920047       -2.8221722180       -4.5589732005
 H        -7.5040826595        2.2687305764       -5.1896863061
 H        -7.9937379369        0.7531463292       -5.8124793270
 H        -6.5919759642        3.0733043288       -7.3887734890
 H        -8.2775829887        3.0320438656       -7.2476249691
 H        -7.5095621188        2.8684738051      -12.7693998317
 H        -8.7892510967        3.2214754974      -11.5497279216
 H        -8.8575422302        1.2539368259      -13.9404067007
 H        -9.8874505589        2.4769867097      -13.4617923451
 H       -12.3460189754       -2.2007424193      -11.3454587208
 H       -11.4621073793       -0.9657605314      -10.3510560154
 H       -10.1406916263       -3.8311904471      -10.1962633857
 H       -11.7262620143       -3.9327640049       -9.8372746836
 H       -13.3246909429       -2.7980875361       -5.5291603763
 H       -14.5677838928       -3.3772651498       -6.6891196306
 H       -15.0502874947       -1.6990439599       -4.9233015987
 H       -15.8077108003       -1.3731525519       -6.4781662236
 H       -13.5349660592        3.3221016178       -4.0657359171
 H       -12.3236028476        2.1261474954       -4.9376543892
 H       -12.2192614116        1.3416292582       -2.1700474064
 H       -12.7516271387        2.9583469554       -1.9646253288
 H       -11.5543412924        5.7464986678       -2.2439973338
 H       -10.1274079727        6.0399397105       -1.1883862284
 H       -11.7764342323        6.1348785808       -0.4965329626
 H        -9.1877075990        1.3478314882       -1.6980368240
 H        -9.7028604203        1.7878037409       -0.0316835897
 H        -8.1976605911        2.3691169130       -0.7229953257
 H        -8.2552657998        4.6468037601       -1.3970370996
 H        -9.0148834278        5.1170136354       -2.9257302275
 H        -7.9772556613        3.8390101212       -2.8323780173
 H       -15.8535270257        2.4353962246       -6.6860665184
 H       -14.1396602519        2.5360719081       -6.6673356498
 H       -14.9666990465        3.3743763231       -5.4484627281
 H       -16.4378307075        0.2198364349       -3.8720505853
 H       -17.1325481213        0.4088539802       -5.5182695939
 H       -16.9226873470        1.8437152843       -4.5426315899
 H       -12.4043233808       -4.7682099213       -7.7368865649
 H       -11.7000824365       -4.4389023822       -6.1630823356
 H       -10.7139094912       -4.9113923577       -7.3867459477
 H       -11.2193704689       -2.1427825933       -5.0971300833
 H       -10.8002835554       -1.0454668939       -6.3742581083
 H        -9.7672752861       -2.4111020260       -6.2327819792
 H       -12.3262437985       -0.1541627764      -14.3804466881
 H       -12.8354465880        0.3308366365      -12.8875072413
 H       -12.9284282863       -1.3373202897      -13.2775000028
 H        -9.0905510775       -0.8409456610      -14.3368557535
 H       -10.6122325931       -0.3631891232      -15.0845004746
 H       -10.4105199621       -1.9585095830      -14.6465160979
 H        -6.4532755450        3.8034943957      -10.9527020748
 H        -5.7895380247        3.7583978619       -9.3330226649
 H        -7.4976863055        3.9593738832       -9.6322011287
 H        -5.4305463817        0.2287911647      -10.4437038472
 H        -4.5819913093        1.3166299372       -9.2920696099
 H        -4.6568877822        1.6579871110      -10.9330021572
 H        -6.8315564942        1.7598133905       -3.5593107870
 H        -6.2819752589        0.5535108457       -2.5508904963
 H        -7.4856809509        0.1539008216       -3.4835612021
 H        -4.3040476199        1.2137878807       -3.2690591865
 H        -3.5147299880        0.6477285788       -4.8015254602
 H        -3.9280381953       -0.5445802728       -3.3917022901
 H        -5.9379434175       -6.8986098638       -6.9455739861
 H        -7.0343478122       -6.5246307691       -8.0672699195
 H        -6.9070525856       -5.3801239276       -6.7737119055
 H        -3.3668641038       -5.5320872003       -9.3929430158
 H        -4.4830045699       -6.9142026530       -9.3508587119
 H        -3.5076696831       -6.3641098701       -7.8909826659
 H        -2.8354488161       -0.7369013011      -13.3290176967
 H        -3.2412703823       -0.4252454132      -11.7369368018
 H        -4.4403953394       -0.1386215998      -12.9620017494
 H        -5.3189952256       -2.1695132843      -14.4156204080
 H        -4.6750411845       -3.8457834183      -14.2131960237
 H        -3.5502033175       -2.6399385491      -14.9967329486
 H         2.0324358713       -4.9472620916      -14.3635984482
 H         1.2033278462       -5.9638279885      -13.1372265488
 H         2.8708381164       -6.1864277333      -13.4084025255
 H         2.8306676327       -5.5805034746      -10.6740096648
 H         1.1227040058       -5.3148644271      -10.8648243242
 H         2.1949346602       -4.0984684832      -10.1333716160
 H         8.0974734170       -3.0883399663       -9.7671935149
 H         8.0106331947       -1.2902184606       -9.7971792112
 H         9.4812719129       -1.9210101156      -10.3525826710
 H         9.8435260516       -1.2804766430      -12.7757210965
 H         8.8116386144       -0.2867695165      -11.7193819717
 H         8.3017819742       -0.6706498924      -13.2679846329
 H        12.1719081474       -6.0636526465      -14.3051460196
 H        13.7400318994       -5.5922727292      -15.2214606512
 H        12.2379698516       -5.8831761755      -15.9546471338
 H        14.0918951887       -3.2197430494      -15.8136901009
 H        13.9185837520       -2.9097916009      -14.0390629716
 H        12.9971827709       -1.9937634061      -15.2971987102
 H         5.4661732383       -3.8395761354      -19.1122703164
 H         6.1783367218       -4.8626245156      -17.9618615789
 H         6.2774732936       -5.1248375430      -19.7144629106
 H         8.7204992857       -2.2966086768      -20.3842364351
 H         7.0307430222       -2.8185071868      -20.9234245066
 H         8.4590049534       -3.9986858180      -20.5403368595
 Na        7.0179258411       -3.4000684819      -15.2697243023
 Na       -7.8022111237       -1.6581697379       -9.9147242283
