232

 C         5.8974009538       -0.9848413313      -19.0195589780
 C         6.5452309927       -2.1682937552      -18.1596072261
 O         6.3941790233       -2.0860823856      -16.9498372159
 C         7.2978289656       -3.4645341931      -18.7712704818
 C         8.4462198464       -3.8661262973      -17.8839484755
 O         8.1370924804       -4.5020325986      -16.8638679667
 C         9.9032777068       -3.4677260248      -18.1507834832
 C        10.9445555179       -4.1106603139      -17.2729977971
 C        10.7553883577       -3.7001194206      -15.7793771680
 O         9.8851363203       -3.0265150257      -15.3475361100
 C        12.2189578588       -3.9410254734      -14.9134267544
 C        11.6762131930       -3.5727647566      -13.4448675571
 O        11.7515434707       -2.5025815668      -13.0145065495
 C        10.9473245450       -4.7452319685      -12.5575766207
 C         9.8801501787       -4.0410294350      -11.6810563179
 C         8.6798096055       -3.5626559741      -12.4295130563
 O         8.3544933973       -4.2128761692      -13.3685030551
 C         8.0108116578       -2.2189405955      -11.9243580415
 C         6.5893234625       -2.0883198731      -12.3914787431
 O         6.4497515681       -1.8913749750      -13.6137953310
 C         5.4233239263       -2.3392316695      -11.4180388753
 C         4.0365863827       -2.4262520473      -12.0773403464
 C         3.6878826270       -3.7187606822      -12.6967733831
 O         4.5496276263       -4.4227320107      -13.2880948343
 C         2.2827019667       -4.3159691442      -12.3997078347
 C         1.1648402922       -3.1959707365      -12.5558874811
 O         1.4618936157       -2.1215772918      -13.0399265193
 C        -0.2886273067       -3.6043373286      -12.0102664054
 C        -1.4706043433       -3.1918168237      -12.9699981461
 C        -2.8974685502       -3.2034949624      -12.2758898391
 O        -2.9611464286       -3.6996894066      -11.1709936906
 C        -4.1497086642       -2.4174868166      -12.7428203650
 C        -5.4100288181       -2.6341824583      -11.8303012723
 O        -5.8593512331       -1.7195645795      -11.2002278103
 C        -6.0841155981       -3.9880510392      -11.9012669596
 C        -5.7497018608       -4.9425298308      -10.7746665367
 C        -5.9598451048       -4.4568418118       -9.3347118228
 O        -6.7480610693       -3.5343071314       -9.1068272536
 C        -5.1551442779       -5.1858175654       -8.1497047282
 C        -4.4477253568       -4.1527816098       -7.0703970458
 O        -3.2547223991       -4.0567204357       -6.9065799042
 C        -5.4323508870       -3.3222087363       -6.3443050083
 C        -4.7544947316       -2.1094874391       -5.6652647909
 C        -5.8311942109       -1.3505568220       -4.9915248390
 O        -7.0257597425       -1.6931881804       -5.0760645369
 C        -5.6190839730        0.0575971045       -4.3063665911
 C        -5.9036953015        1.0409682540       -5.6172959026
 O        -4.9445491443        1.2603620175       -6.3242392825
 C        -7.3362215576        1.5961015104       -5.8760191271
 C        -7.2319053962        2.3481214781       -7.2173921453
 C        -7.2414273349        1.4357414299       -8.4742318354
 O        -7.3727850944        0.2458809870       -8.3977523890
 C        -6.7418370259        1.9783100927       -9.9128499042
 C        -7.6265492298        1.3959396071      -11.0605547650
 O        -7.9030143265        0.2251721442      -11.2219634177
 C        -8.4576054091        2.3960312511      -11.9028506352
 C        -9.1670258962        1.5656404026      -13.0369519730
 C       -10.3167441605        0.7403084926      -12.4375013353
 O       -11.0446472046        1.2104567779      -11.5383397895
 C       -10.6804034797       -0.6234586354      -13.1030931843
 C       -10.3330103530       -1.8171336711      -12.0696798359
 O        -9.4174180553       -2.5632275963      -12.1405326845
 C       -11.3714588276       -1.9679186314      -11.0512042445
 C       -11.0840770830       -2.9925476432      -10.0383769977
 C       -10.6512168668       -2.4022666299       -8.6742310552
 O        -9.6782937211       -1.6057968051       -8.6624243910
 C       -11.3682163211       -2.7266873140       -7.3248109304
 C       -12.8599144805       -2.2402878540       -7.3959882067
 O       -13.2736928926       -1.8945001417       -8.4941083844
 C       -13.9006070408       -2.5418586859       -6.2994546135
 C       -14.8926988459       -1.4369043571       -5.6595827624
 C       -14.3261891129        0.0235661875       -5.8859311773
 O       -13.3671251439        0.1744081760       -6.6046934351
 C       -15.0316842428        1.1874705023       -5.1425216572
 C       -14.0614829972        1.4419592051       -3.8896608965
 O       -14.1910211920        0.7008235901       -2.9328961104
 C       -12.9698792562        2.5156017774       -3.9579359503
 C       -12.1018143900        2.3782625697       -2.7246466046
 C       -10.6005007085        2.5996704799       -2.9719449397
 O       -10.1093357543        2.5357676390       -4.0726412671
 C        -9.8441166260        3.3766967247       -1.7946477136
 C       -10.8923555898        4.2048437509       -0.8082728025
 O       -11.3365010835        3.6106527403        0.1863554158
 C       -11.1041023748        5.7333728855       -0.8741435737
 C        -9.2495152275        2.1482353683       -0.9752547140
 C        -8.7284461776        4.1880669810       -2.4411463411
 C       -15.1540179225        2.4017029338       -6.0768966441
 C       -16.4779537601        0.8117620431       -4.6720612064
 C       -11.4173561294       -4.2626144506       -7.1319175868
 C       -10.6283463616       -2.0663754916       -6.1872949671
 C       -12.1593036090       -0.5153089645      -13.2529533940
 C        -9.9410619133       -0.7286564892      -14.4206242043
 C        -6.7846027203        3.5771778420       -9.9576213525
 C        -5.3535722484        1.4940039295      -10.1284092229
 C        -6.4924958663        0.1487177011       -3.0759868084
 C        -4.1218305669        0.1885664814       -3.8742316768
 C        -6.2897382664       -6.1633250550       -7.5842495196
 C        -3.9981771285       -6.1364205406       -8.6001918981
 C        -3.6926212793       -0.8578064113      -12.6755222438
 C        -4.5439775997       -2.6797311336      -14.2094953940
 C         1.8979761945       -5.6020269943      -13.3190159185
 C         2.3307270300       -4.8206298456      -10.8972374596
 C         8.0324761303       -2.3177808098      -10.3828280296
 C         8.8495948082       -1.0598152975      -12.5500158331
 C        12.8012440506       -5.4014041382      -14.9732934230
 C        13.2071325498       -2.8861121027      -15.3383445512
 C         6.2614537986       -4.5600879904      -18.9363129637
 C         7.7565006650       -2.9739373971      -20.1437839034
 H         5.1574573787       -1.3918927327      -19.6907105410
 H         6.6674810822       -0.5555156804      -19.6054207042
 H         5.6058823957       -0.3120012118      -18.1583441667
 H         9.9390344554       -2.3997249931      -17.8967879081
 H        10.1097005565       -3.5870807270      -19.2209997245
 H        12.0150992838       -3.8055416614      -17.5449284315
 H        10.9233733680       -5.2268468078      -17.1956587884
 H        11.6503443907       -5.2483660640      -11.8408804405
 H        10.4529758147       -5.5392962556      -13.1564585231
 H        10.2633100099       -3.3705318528      -10.9372457748
 H         9.3716137249       -4.8122954031      -11.0623664219
 H         5.3331690383       -1.5320752313      -10.7078313044
 H         5.6676446880       -3.1541193278      -10.6783167251
 H         3.8644038206       -1.6087843675      -12.8446625013
 H         3.2280873270       -2.3646974435      -11.2524414646
 H        -0.3354973211       -2.9962828340      -11.0971669263
 H        -0.3025273495       -4.6799310020      -11.8549550888
 H        -1.5880726463       -4.0195216695      -13.7524684582
 H        -1.1915074029       -2.1810618445      -13.3234530082
 H        -5.9602552965       -4.4732673394      -12.9299072833
 H        -7.1677310697       -3.6744725158      -11.9182854500
 H        -4.7277741856       -5.3391704908      -10.8867950790
 H        -6.3822059538       -5.8580899245      -10.8473934601
 H        -5.8830490219       -3.9668607825       -5.6103450564
 H        -6.1890182592       -2.9897995807       -7.0441446916
 H        -4.1939038104       -1.4088891225       -6.2304581892
 H        -3.9086878371       -2.4156116460       -5.0064853962
 H        -7.7050627475        2.2106255590       -5.0575864479
 H        -7.9403382388        0.6802245731       -5.8281919626
 H        -6.2280780869        2.7830568314       -7.2641954215
 H        -7.7942857789        3.2089940863       -7.1383822705
 H        -7.7919548569        3.2003157471      -12.3310327379
 H        -9.1312093831        2.9133131142      -11.2803838001
 H        -8.4782783436        0.8943290330      -13.5267791904
 H        -9.6698428130        2.0987371878      -13.8732850085
 H       -12.3244169060       -2.1385016333      -11.4920942732
 H       -11.4495025634       -0.9922214729      -10.5288757138
 H       -10.3189255366       -3.7509504693      -10.2571758928
 H       -11.9685741726       -3.6472576689       -9.8065087825
 H       -13.4057155809       -3.0097956038       -5.4522002126
 H       -14.5652233606       -3.2789693631       -6.6859726586
 H       -15.0765372902       -1.6037227307       -4.6039793592
 H       -15.8123452774       -1.5431344005       -6.1714648648
 H       -13.5299306093        3.4456059590       -3.8692386612
 H       -12.3154901315        2.3776454740       -4.7817064754
 H       -12.4149998288        1.5188351543       -2.1632040575
 H       -12.3481606628        3.1859005268       -2.0379715944
 H       -12.1281089309        5.8745170977       -1.0350033556
 H       -10.5150022544        6.1485149796       -1.6938147539
 H       -10.9630468375        6.2331639318        0.0646826284
 H        -8.7522294482        1.3873292217       -1.5134355958
 H       -10.0177943751        1.6971833889       -0.4075248584
 H        -8.5551341828        2.5472493818       -0.2568584563
 H        -8.2143871898        4.9597217436       -1.8377981741
 H        -9.1330582573        4.6983345833       -3.3594500420
 H        -7.9554965242        3.5173602617       -2.8720986262
 H       -15.7905386317        2.1809850555       -6.9634486847
 H       -14.1375143585        2.7468195849       -6.3869050802
 H       -15.5565021490        3.2383059998       -5.5880175535
 H       -16.5768782130       -0.1624193697       -4.3362509225
 H       -17.1548697217        0.8647279113       -5.4494311090
 H       -16.9324713714        1.4696523272       -3.9680384368
 H       -11.8966415628       -4.6801597811       -8.0642610999
 H       -11.7674968757       -4.7944976250       -6.2083281217
 H       -10.3256330103       -4.5641873646       -7.1875400653
 H       -11.2271086442       -2.2093779384       -5.3409825960
 H       -10.6040960429       -0.9828959114       -6.2332027539
 H        -9.6375513756       -2.4078488084       -5.9873983794
 H       -12.4760136146        0.4008164821      -13.8454097765
 H       -12.6480564218       -0.4127324084      -12.3056601305
 H       -12.6534169618       -1.3406813826      -13.7437569390
 H        -8.8771191735       -0.9645252525      -14.1386720677
 H        -9.9809979104        0.1966705961      -15.0572812818
 H       -10.2729401970       -1.6249039293      -15.0411203938
 H        -6.4619031273        3.8194762675      -10.9758544351
 H        -6.2431687744        3.9450493060       -9.0284575350
 H        -7.7961308382        3.9463380641       -9.9434708586
 H        -5.2537064054        0.4205571579      -10.0028617300
 H        -4.5005621298        1.9071536326       -9.7176090868
 H        -5.0894132252        1.5770739914      -11.1773022070
 H        -6.3851280676        1.1707050581       -2.5425279657
 H        -6.2144157874       -0.7365838159       -2.3553194733
 H        -7.5786470690       -0.1870134839       -3.2610378687
 H        -3.9352383530        1.2323625387       -3.6512947919
 H        -3.4477516816       -0.1387724255       -4.7168696840
 H        -4.0522205420       -0.3583308497       -2.9580118649
 H        -5.8483918081       -6.7685413015       -6.7809225408
 H        -6.5173555632       -6.9717012602       -8.2615820183
 H        -7.2195640660       -5.7994864142       -7.3062358837
 H        -3.1668459791       -5.6189499010       -9.0265627664
 H        -4.2973450544       -6.7845174144       -9.4104192348
 H        -3.5926184532       -6.6009902589       -7.7179833972
 H        -2.6786826084       -0.5628401953      -13.0244191962
 H        -3.6476703332       -0.5205422116      -11.6454462255
 H        -4.3920879700       -0.1736965259      -13.1158835120
 H        -5.5000719509       -2.2458616456      -14.5554665569
 H        -4.5803212668       -3.8024729912      -14.3697016686
 H        -3.6718170812       -2.2919499945      -14.6646853014
 H         2.2314807034       -5.4918241164      -14.3569412142
 H         0.8296715130       -5.8891553471      -13.1945892298
 H         2.3851427694       -6.5268674029      -12.8774584748
 H         3.3120487269       -5.1450368237      -10.5407608169
 H         1.6635132704       -5.6492266736      -10.7564084938
 H         2.0378349962       -3.9894093003      -10.2589841403
 H         7.6221970079       -3.1996340502       -9.9689306838
 H         7.5079257418       -1.3532073896      -10.0550096174
 H         9.0773744476       -2.0948980570      -10.1379812011
 H         9.8347111539       -1.3898527735      -12.6671839729
 H         8.9022042934       -0.1138702092      -11.9093605555
 H         8.5157318660       -0.6869119560      -13.5413554608
 H        12.1678374188       -6.0428514110      -14.2963339389
 H        13.7881423110       -5.2871682567      -14.5882906290
 H        13.0034444150       -5.8329851604      -15.9311293029
 H        13.3043396054       -2.7630046489      -16.4342635608
 H        14.1564935912       -2.9777322527      -14.8897148260
 H        12.7567496201       -1.8537554121      -15.0774871354
 H         5.5858565641       -4.2863231658      -19.7702261916
 H         5.7856050294       -4.8244174119      -18.0067520409
 H         6.8280876068       -5.4533102430      -19.2923558077
 H         8.4387303591       -2.1775895857      -20.1008453670
 H         6.7895414035       -2.6086634016      -20.4943317632
 H         8.2563297910       -3.6700362512      -20.8277864421
 Na        7.0039565698       -3.5394103486      -15.1926319304
 Na       -7.9355746799       -1.6053071108       -9.9476031792
