232

 C         5.9341393508       -1.0397361441      -18.9558235868
 C         6.4204472361       -2.1637665369      -17.9926533328
 O         6.1611652423       -2.2003260408      -16.8262579127
 C         7.1351603334       -3.3147257787      -18.8234050999
 C         8.3194708122       -3.8159673530      -17.8254990565
 O         8.0654139064       -4.4772019893      -16.8233466093
 C         9.7658126541       -3.4530339815      -18.1038135591
 C        10.8671482445       -4.2424863298      -17.3875546725
 C        10.8970499754       -3.7523630817      -15.8612394981
 O         9.9035313295       -3.1386900283      -15.5119901770
 C        12.0749184027       -3.8637424058      -14.8792676043
 C        11.7328283445       -3.5345256399      -13.3977499375
 O        12.0249900422       -2.4077309688      -12.9793343136
 C        11.0822950830       -4.5702345830      -12.4953143511
 C        10.0381444109       -4.0308903984      -11.5472917649
 C         8.7511452841       -3.6449749790      -12.4087702189
 O         8.3092597021       -4.2586792720      -13.3683976545
 C         8.0502592730       -2.2859539218      -11.9489566163
 C         6.5496629332       -2.1787389188      -12.6693792774
 O         6.2600407623       -1.7350637652      -13.7899044205
 C         5.4407397616       -2.3295081336      -11.6374056952
 C         3.9743094316       -2.3455514571      -12.1931262373
 C         3.7292449799       -3.8166365382      -12.7370040772
 O         4.6238727764       -4.4658969202      -13.2675478869
 C         2.3009615892       -4.3540631030      -12.3585566204
 C         1.1812295629       -3.2835802737      -12.5975369548
 O         1.4909712645       -2.2410283305      -13.0942221793
 C        -0.2519809013       -3.4125357664      -12.0190870761
 C        -1.4294913781       -3.0868213443      -12.9717872284
 C        -2.8177335573       -3.1020292609      -12.1588415164
 O        -2.9899068743       -3.7039085348      -11.1555743422
 C        -4.0571140538       -2.3213438425      -12.7876144232
 C        -5.3789980212       -2.5877320588      -11.9345055466
 O        -5.6921359075       -1.8208726287      -11.0222125654
 C        -6.2391218604       -3.9970642574      -11.9386988344
 C        -5.6518637236       -4.9526288285      -10.8823638121
 C        -5.8465743843       -4.4934694603       -9.3204617672
 O        -6.7481536042       -3.7736362600       -9.0452815370
 C        -5.0590131372       -5.2156254587       -8.2000431893
 C        -4.4894987080       -4.2394562270       -7.1784221006
 O        -3.2882906747       -4.1258777096       -7.0110824628
 C        -5.5043407895       -3.2805034197       -6.4157534322
 C        -4.8395549126       -1.9865592352       -5.8352295668
 C        -5.9482950207       -1.3221981325       -5.0667287333
 O        -7.1211249917       -1.6304616777       -5.1477882337
 C        -5.5804284243       -0.0131509239       -4.2164756540
 C        -5.8983173641        0.9147223707       -5.3839286128
 O        -5.0346178883        1.1108608254       -6.2290329901
 C        -7.2679261810        1.5640785384       -5.7852745083
 C        -7.1740433690        2.2247297001       -7.1945596023
 C        -7.1211776385        1.3712702338       -8.4179311958
 O        -7.2913421561        0.1418156885       -8.4580617143
 C        -6.8101114723        2.0747910431       -9.9426769727
 C        -7.8446818436        1.5292298951      -10.9306928249
 O        -7.8731839003        0.3363727495      -11.1871763032
 C        -8.6016786746        2.4580787006      -11.8960593895
 C        -9.1394899053        1.6391215587      -13.0322054146
 C       -10.3663937588        0.8122294315      -12.4980750001
 O       -11.1107529121        1.3409487658      -11.7656893044
 C       -10.6936664951       -0.6487310402      -13.0958004596
 C       -10.3478342354       -1.7988330992      -12.0910994475
 O        -9.3715184146       -2.4720186297      -12.2559452878
 C       -11.4973973890       -2.1064000797      -10.9788745874
 C       -11.1977826528       -3.0544813035       -9.8353357502
 C       -10.6631714298       -2.3789355972       -8.5356870654
 O        -9.6976005835       -1.6347266622       -8.5720937167
 C       -11.3793802326       -2.7205418488       -7.2248344458
 C       -12.9370531998       -2.2560649991       -7.3731046505
 O       -13.3568448832       -1.9389326797       -8.4561284479
 C       -13.8618529818       -2.5633382604       -6.1381376834
 C       -14.7725990279       -1.4113314018       -5.6891081135
 C       -14.3098249379        0.0038305575       -5.8576861367
 O       -13.4305872190        0.3123062843       -6.6250489013
 C       -15.0525307944        1.1247923208       -5.1080141298
 C       -14.1604277787        1.4275999725       -3.8577233162
 O       -14.2376761250        0.6881835926       -2.8904059896
 C       -13.0155154676        2.4149227486       -3.9506076180
 C       -12.1052650852        2.4790454676       -2.7431500588
 C       -10.6513693209        2.7916545484       -2.9957907702
 O       -10.0629705985        2.3983437693       -3.9746345032
 C        -9.8516078267        3.4083274967       -1.8179845575
 C       -10.7464379885        4.2492532718       -0.7944117794
 O       -11.2475483579        3.5765921633        0.0515864531
 C       -11.0267912884        5.7049717497       -0.8821994801
 C        -9.2293191604        2.1850407819       -0.9604473164
 C        -8.6353451901        4.1828088757       -2.3703236526
 C       -15.1891884914        2.2576684993       -6.1395576059
 C       -16.4512377625        0.7843863964       -4.6289383092
 C       -11.2801109043       -4.2630865376       -7.1147035981
 C       -10.5845680026       -2.0007335371       -6.0962176388
 C       -12.1940844861       -0.4821952457      -13.6019144762
 C        -9.9284423947       -0.8064442856      -14.4297515814
 C        -6.7805656986        3.6484506031       -9.9120849819
 C        -5.3137793394        1.6100388144      -10.1326683956
 C        -6.4428458191        0.0405421485       -2.9847335274
 C        -4.0975324766        0.1493918475       -3.8577228332
 C        -6.1660231133       -6.0522720627       -7.4944717832
 C        -3.9647055728       -6.1601137516       -8.6626291879
 C        -3.7370319482       -0.8065043416      -12.5587511398
 C        -4.4122810669       -2.8397281723      -14.3012326656
 C         1.8741721825       -5.5316702594      -13.2586629311
 C         2.3568102999       -4.7687391639      -10.8932752282
 C         7.9661156818       -2.2039678955      -10.3836103586
 C         8.9185177996       -1.1008256652      -12.4315473160
 C        12.7195157013       -5.2789685359      -15.0503327377
 C        13.0524816841       -2.8162132133      -15.4094265423
 C         6.2575622477       -4.5766921625      -18.9600018122
 C         7.8041437712       -2.9740083781      -20.2766521722
 H         5.3043935358       -1.5220090714      -19.6602611751
 H         6.8510993564       -0.6780818846      -19.5334302489
 H         5.5372376430       -0.3085385320      -18.2890040075
 H         9.8539431930       -2.3507156921      -17.9785596578
 H         9.8597794068       -3.6956085171      -19.1891594534
 H        11.9092422642       -4.1676137700      -17.8515153670
 H        10.5330091674       -5.3133973428      -17.3252312334
 H        11.8708150462       -4.9509177248      -11.8268454785
 H        10.6768056124       -5.4395516176      -13.0420830164
 H        10.3481117469       -3.1464037549      -10.9463124902
 H         9.7995998260       -4.7577684108      -10.7572693665
 H         5.5692000930       -1.5883010820      -10.8377021440
 H         5.6771691393       -3.1748139460      -11.0379600300
 H         3.8694372421       -1.6662290181      -13.0248038542
 H         3.1908960644       -2.1311548658      -11.4530013648
 H        -0.2136134488       -2.7018435862      -11.1520132958
 H        -0.3867051265       -4.4407410674      -11.7295316667
 H        -1.5058643465       -3.8347572587      -13.7723454582
 H        -1.2783177433       -2.0742470608      -13.3022611203
 H        -6.2412478860       -4.4914729461      -12.9155492855
 H        -7.3215977243       -3.6055549771      -11.8434497438
 H        -4.6646490418       -5.2510990412      -11.2504032896
 H        -6.1951739572       -5.9254189261      -10.8124318596
 H        -5.9404137940       -3.8614765323       -5.5629538884
 H        -6.2563007346       -2.9821167322       -7.0672884104
 H        -4.3320247900       -1.2522007424       -6.4897982433
 H        -3.9094533962       -2.1641278252       -5.1988118794
 H        -7.3763052215        2.4439302073       -5.1040532483
 H        -8.2338540966        0.9465163970       -5.5772094230
 H        -6.3935050136        3.0362531128       -7.2180910518
 H        -8.0903985217        2.8211567707       -7.2003243298
 H        -8.1398551375        3.3364392663      -12.2002934108
 H        -9.5046204478        2.8003991615      -11.3824389474
 H        -8.4089902480        0.9727340805      -13.5574102220
 H        -9.5752644248        2.2872708689      -13.7911095100
 H       -12.3293894323       -2.4450192416      -11.5192937030
 H       -11.8068488538       -1.1699984257      -10.5579894001
 H       -10.3027468577       -3.6750977302      -10.1078792271
 H       -11.9407134896       -3.8435969122       -9.5518793333
 H       -13.2147262169       -2.7632622608       -5.2455570077
 H       -14.4755107267       -3.4818781558       -6.2498226265
 H       -15.0430582716       -1.4641120030       -4.6620407776
 H       -15.7190953194       -1.5322071144       -6.3481431822
 H       -13.5275686077        3.3575552707       -3.9885915388
 H       -12.3658767895        2.1398869197       -4.7482719382
 H       -11.9792790392        1.4667952510       -2.4377634104
 H       -12.5755412038        2.9400272827       -1.8547870205
 H       -12.0914064053        5.7924598249       -0.5740209738
 H       -10.7715274647        6.1682283698       -1.8581495665
 H       -10.5137310431        6.2318311269       -0.0706335439
 H        -8.3927397789        1.6777808909       -1.4492250564
 H        -9.9597738773        1.4147017032       -0.6922411066
 H        -8.8477008953        2.6244628388       -0.0673253151
 H        -8.1151769680        4.7141784225       -1.5210524481
 H        -8.9096478416        4.9885589967       -3.0525896414
 H        -7.8719481136        3.5591690286       -2.9436184638
 H       -15.5702113658        1.8427080332       -7.1439309806
 H       -14.2523026463        2.7466980803       -6.2762150319
 H       -15.8846436373        3.0560059301       -5.8398175929
 H       -16.5688198907       -0.1203284507       -4.1370291370
 H       -17.2346472873        0.7640877118       -5.3944302985
 H       -16.8142877017        1.5032973972       -3.9812083852
 H       -11.6394883507       -4.8367639897       -8.0134483544
 H       -11.8629600743       -4.6481233961       -6.2953219012
 H       -10.2290084818       -4.5648625633       -6.8360870726
 H       -11.0397688122       -2.1084243017       -5.1528122828
 H       -10.5813013753       -0.9906560758       -6.2545407003
 H        -9.5526301498       -2.3151063749       -6.0163200176
 H       -12.2502898620        0.3760576375      -14.2347652472
 H       -13.0534646755       -0.4235230543      -12.8782065040
 H       -12.4677447160       -1.3302843124      -14.2890851414
 H        -8.9795504311       -1.3130209314      -14.2531062790
 H        -9.7590679068        0.1953094688      -15.0321403712
 H       -10.4254083150       -1.5380253694      -15.0630573391
 H        -6.6086121579        3.8531336294      -11.0092673762
 H        -6.1486577353        3.9881964231       -9.1640731016
 H        -7.8280307379        4.0675894661       -9.7411592969
 H        -5.1550446033        0.6186029517       -9.8412363550
 H        -4.5828603327        2.1341774643       -9.5283942576
 H        -4.8132520397        1.6817553215      -11.0960023873
 H        -6.0661524840        0.9118643169       -2.2451311124
 H        -6.5612688347       -0.9237057144       -2.4833390260
 H        -7.4369547615        0.1987287747       -3.2564458972
 H        -3.9543721563        1.1796370649       -3.6495727227
 H        -3.4273066217       -0.1244884711       -4.5855464759
 H        -4.0285172275       -0.3696270728       -2.9211140375
 H        -5.9583677288       -6.3907189902       -6.4718447231
 H        -6.4147684972       -7.0165388540       -8.0044618957
 H        -7.1075597616       -5.5568495217       -7.4850173207
 H        -3.1626921033       -5.5959054749       -9.0955062353
 H        -4.2264790913       -6.8362395495       -9.5205544456
 H        -3.5340130632       -6.6070373030       -7.8401549421
 H        -2.8452475473       -0.3527070630      -12.9258215741
 H        -3.6021199918       -0.7558007396      -11.4308375677
 H        -4.5018712122       -0.0798571311      -12.7389309255
 H        -5.3890661287       -2.4406937640      -14.5726506065
 H        -4.5294817246       -3.8998851651      -14.2627213270
 H        -3.6661619329       -2.4203011679      -14.9560651537
 H         2.1873163124       -5.3309393889      -14.2871845214
 H         0.8030073147       -5.7252609206      -13.1415473058
 H         2.2946465212       -6.4803793062      -12.9455450324
 H         3.3565455323       -5.2156988326      -10.6516955801
 H         1.6080611885       -5.5514920522      -10.5852390516
 H         2.2600197968       -3.8600368612      -10.2857165647
 H         7.5479322645       -3.0231030125       -9.8384652382
 H         7.4773219424       -1.2507432414      -10.2796747202
 H         9.0253622333       -2.0066114918      -10.0735183418
 H         9.9681154706       -1.3226387046      -12.1132844662
 H         8.6958532300       -0.1653037753      -12.0539536944
 H         8.9435884965       -0.9426298195      -13.5319453132
 H        12.0174814448       -6.0824014908      -14.9445162243
 H        13.5884401149       -5.3588931205      -14.2656153024
 H        13.2930509934       -5.2567492676      -15.9560953086
 H        12.9117951444       -2.6750315517      -16.4570353640
 H        14.1479118485       -3.2353985990      -15.1855263869
 H        12.9542520914       -1.8077189769      -15.0375582505
 H         5.6110331273       -4.6228968332      -19.8664544874
 H         5.7411723377       -4.7839368937      -17.9718387554
 H         7.0501618238       -5.4455747149      -19.0439124458
 H         8.4325375741       -2.1211669345      -20.3273373873
 H         6.9915218124       -2.9694445779      -20.9358990069
 H         8.4170445578       -3.7698003079      -20.5541509009
 Na        7.0077597589       -3.5597376044      -15.0494313293
 Na       -7.8917160507       -1.6451771843      -10.0036551600
