232

 C         5.9009473843       -0.9991748435      -18.8609969035
 C         6.2919306604       -2.2448416511      -18.0722127724
 O         5.9900103850       -2.3452248253      -16.8932655509
 C         7.2131998389       -3.3916768813      -18.7524285124
 C         8.3480643902       -3.8048961671      -17.7853071083
 O         7.9543718410       -4.4803964242      -16.8755399858
 C         9.8117843210       -3.4960474525      -18.1910916080
 C        10.7090220072       -4.3545368203      -17.3415171101
 C        10.7691460443       -3.7238072045      -15.8857440687
 O         9.7715848212       -3.1280446396      -15.4900186080
 C        12.0779626073       -3.7850349039      -15.0518097094
 C        11.8095771631       -3.4586317813      -13.4112607871
 O        12.1929077827       -2.3657856048      -12.9078514636
 C        11.2332638106       -4.5248954695      -12.5334546256
 C        10.0539823244       -3.9898803391      -11.6178898637
 C         8.7510380494       -3.5823721692      -12.3540348199
 O         8.4341528991       -4.4015542313      -13.2243877625
 C         7.9959984664       -2.1989958352      -11.9893617811
 C         6.5604136684       -2.0651103117      -12.6576845871
 O         6.3764748459       -1.7464920634      -13.7968907953
 C         5.4191847924       -2.2773727145      -11.7139026990
 C         4.0473024129       -2.3437101167      -12.3693412479
 C         3.6768738789       -3.8653177950      -12.7713288943
 O         4.5373102766       -4.4822696451      -13.2794254530
 C         2.2531595783       -4.3717105762      -12.3556255228
 C         1.1678117771       -3.2071464771      -12.5945468212
 O         1.4286784098       -2.2520118436      -13.3030333223
 C        -0.2837327965       -3.3341549201      -11.9134384328
 C        -1.4543271193       -2.9753746558      -12.8776952065
 C        -2.8014709597       -3.0742948948      -12.1668282340
 O        -2.8448459578       -3.7259200842      -11.1353552021
 C        -4.0790492574       -2.3382902274      -12.6760789738
 C        -5.2586602081       -2.6826523913      -11.8006753422
 O        -5.5178692524       -1.8557876446      -10.9545340606
 C        -6.1568077962       -3.9306526936      -11.8563182000
 C        -5.5715724093       -4.9180053265      -10.9286127348
 C        -5.9111020156       -4.6242528784       -9.4679957493
 O        -6.7690970071       -3.8413234457       -9.1025764689
 C        -5.0839297138       -5.3060780768       -8.3367311810
 C        -4.4567727707       -4.1334014561       -7.3858340576
 O        -3.2944349697       -4.1917966766       -7.0919289916
 C        -5.5325046194       -3.3179709385       -6.5480175961
 C        -5.0014254506       -2.0567012719       -5.9501635984
 C        -6.0541219468       -1.3176617898       -5.0437313799
 O        -7.2022247987       -1.6211712162       -5.1642960273
 C        -5.6417854800       -0.0347417614       -4.1732621079
 C        -5.7922963504        1.0044200933       -5.3659511307
 O        -4.9087705633        1.0017070378       -6.2094616910
 C        -7.2327202219        1.5816843449       -5.7358039528
 C        -7.2928402175        2.2214999798       -7.1764888538
 C        -7.0942415436        1.3079817290       -8.4108601071
 O        -7.1935673236        0.1034803448       -8.4171187055
 C        -6.8341541287        2.1249704435       -9.7505507749
 C        -7.7866456447        1.6068845623      -10.9282082432
 O        -7.8864686563        0.4145523868      -11.1076923101
 C        -8.6628184311        2.5246781698      -11.8226233084
 C        -9.2013798798        1.7432052141      -12.9770491598
 C       -10.4702969602        0.8815071355      -12.6787763802
 O       -11.2120440968        1.3688431857      -11.8692639590
 C       -10.7152843618       -0.5889008068      -13.3092592296
 C       -10.5611564987       -1.7383119932      -12.1931801482
 O        -9.4102133667       -2.2567746008      -12.1220024058
 C       -11.5232400405       -2.1122208761      -11.0421055786
 C       -11.1123263578       -3.1085352600       -9.8648714084
 C       -10.6225883575       -2.3732560106       -8.5666823838
 O        -9.7008307314       -1.6497020223       -8.4949279563
 C       -11.4245069571       -2.6977691913       -7.1896802605
 C       -12.9273379293       -2.3823161881       -7.3069530113
 O       -13.4779090429       -2.0014748510       -8.3100341373
 C       -13.6763051557       -2.5403429843       -5.9996327995
 C       -14.7336639660       -1.5334887062       -5.7367147503
 C       -14.2932166670       -0.0169922375       -5.9242610123
 O       -13.3601145426        0.3573240975       -6.6107060722
 C       -15.1058994923        1.1292151645       -5.1005169895
 C       -14.2090786576        1.3422422024       -3.8434269745
 O       -14.3377620931        0.6797543022       -2.8453786179
 C       -13.0036531361        2.3974862049       -4.0656845628
 C       -12.1645915649        2.4520792545       -2.7299059851
 C       -10.6510854718        2.8074719089       -2.9475612522
 O       -10.0562741126        2.3573050711       -3.9303347204
 C        -9.7013991761        3.4699519624       -1.7206857046
 C       -10.6366463549        4.1869344698       -0.7356168904
 O       -11.2495560374        3.5068118576        0.0443084271
 C       -10.8856092697        5.7140983661       -1.0123254729
 C        -9.2329445873        2.2599797040       -1.0209638508
 C        -8.5234429601        4.3203076192       -2.2942729968
 C       -15.2002267882        2.3246898405       -6.1473176140
 C       -16.4998416163        0.7011471665       -4.5576853071
 C       -11.2035002500       -4.2232362826       -6.9303115317
 C       -10.7037169483       -1.9497701247       -5.9967976089
 C       -12.2502472019       -0.5333092060      -13.8061339724
 C        -9.7793496207       -0.9919908100      -14.4761443855
 C        -6.8130830572        3.6914307209       -9.6945482001
 C        -5.3932366618        1.7157128925      -10.2074310593
 C        -6.5505701472        0.0689283553       -2.8933744563
 C        -4.0531732779        0.0837806253       -3.8151982231
 C        -6.0712217686       -6.0547377987       -7.3473072332
 C        -3.8961398774       -6.2123432777       -8.7926405570
 C        -3.8557092366       -0.8958371554      -12.6254469423
 C        -4.1604667369       -2.7864376016      -14.2472291176
 C         1.9199947689       -5.6188491015      -13.2771523248
 C         2.3438329388       -4.7523418284      -10.8411238031
 C         7.8846891758       -2.0771543145      -10.4817764218
 C         8.9478201002       -1.1576792285      -12.4837404365
 C        12.6635512338       -5.2842241269      -15.1003541754
 C        13.1031406252       -2.6697177594      -15.5521533250
 C         6.2178082104       -4.5676521748      -18.9442510829
 C         7.6708579802       -2.9693954136      -20.1194671209
 H         5.3359533705       -1.3981280046      -19.7229492930
 H         6.8519046218       -0.5874206808      -19.2353817051
 H         5.4137104956       -0.3788325187      -18.1797742485
 H         9.9546221530       -2.4077825006      -18.0213499759
 H         9.9540568060       -3.7099509322      -19.2706082513
 H        11.7451882789       -4.2403429902      -17.5680079300
 H        10.3815962463       -5.3958901795      -17.3860130714
 H        11.9782226433       -4.7875467669      -11.8001217544
 H        10.9854525249       -5.4194674394      -13.1215532515
 H        10.4181992356       -3.0765202881      -11.0802203076
 H         9.8429870120       -4.6449176486      -10.7664366431
 H         5.4264241990       -1.5533968944      -10.8775703580
 H         5.6759341796       -3.0987596438      -11.1151774525
 H         4.1196607461       -1.7676549100      -13.2705515374
 H         3.3082832297       -1.8769362438      -11.8127552765
 H        -0.2426951723       -2.7064010641      -11.0125375924
 H        -0.4190656016       -4.4108378892      -11.6569772204
 H        -1.4645441569       -3.6115840734      -13.7193079845
 H        -1.3296091961       -1.9337028281      -13.1356513007
 H        -6.1008033645       -4.2814179366      -12.8653069721
 H        -7.1716482798       -3.5871810785      -11.7178362669
 H        -4.4934037265       -5.0045970834      -11.1080358888
 H        -5.9194018238       -5.9454848748      -11.0562012758
 H        -5.8084720182       -4.0721198210       -5.7861383253
 H        -6.4018657920       -3.0476419980       -7.1908899253
 H        -4.6497293933       -1.4047786658       -6.8193165517
 H        -4.0136244472       -2.1414972849       -5.5363959555
 H        -7.6865846857        2.2463930511       -4.9216548406
 H        -7.8719107215        0.6615243098       -5.7077556178
 H        -6.6555079231        3.1350924870       -7.2065646237
 H        -8.3807346320        2.7009607839       -7.2461410999
 H        -8.1962757428        3.3747726188      -12.2470770742
 H        -9.4543592138        2.9666051047      -11.1659946787
 H        -8.4251753243        1.0137162205      -13.3109208849
 H        -9.3915814208        2.4328336688      -13.8002792360
 H       -12.2768013721       -2.7076704758      -11.6004299590
 H       -12.0596006839       -1.2510235166      -10.6833835364
 H       -10.4378950310       -3.9208123324      -10.2495349799
 H       -11.9858561335       -3.6256663772       -9.4990079632
 H       -13.0301048186       -2.6019299377       -5.0972631524
 H       -14.1385110098       -3.5842336048       -6.0572654683
 H       -15.1093071594       -1.5210114101       -4.6633100183
 H       -15.5536912448       -1.7661259404       -6.4896369061
 H       -13.3740566391        3.3897658832       -4.2121301391
 H       -12.3541782824        1.9485282328       -4.8461977937
 H       -12.1686472918        1.4472022212       -2.2500401420
 H       -12.6908357429        3.0950604725       -2.0290691987
 H       -11.7122124315        6.0917789469       -0.3138528678
 H       -10.9830105380        6.0057825645       -2.0761620831
 H        -9.9467504753        6.1856887332       -0.5918920442
 H        -8.3435618139        1.8246698631       -1.5297646514
 H       -10.0184997004        1.4747596045       -1.1388474349
 H        -8.9935542211        2.3914114180        0.0510045389
 H        -7.7980930728        4.5227785100       -1.4961249130
 H        -8.8175555682        5.3414986903       -2.5821529570
 H        -7.9933447178        3.8565823624       -3.1400014482
 H       -15.5214515793        1.9117551277       -7.0670051195
 H       -14.2477203672        2.8261112257       -6.2984529465
 H       -15.9524623019        3.1565408480       -5.9022487367
 H       -16.4029396372       -0.0193118016       -3.6819312368
 H       -17.2795632102        0.2378569939       -5.1760090589
 H       -17.0392624654        1.5374095279       -4.1027837770
 H       -11.6022139017       -4.8891693234       -7.6338078736
 H       -11.9062645220       -4.3142556552       -6.0980058652
 H       -10.2676274364       -4.5665945843       -6.5751331615
 H       -11.0237392690       -2.2264317234       -4.9791684645
 H       -10.7299938821       -0.8605631413       -6.0547400403
 H        -9.6767362230       -2.2183211871       -6.0693934175
 H       -12.5027634926        0.1449485791      -14.5912367559
 H       -12.9706623629       -0.3738706281      -12.9770444418
 H       -12.5333744821       -1.5322794781      -14.2163928695
 H        -8.8244590633       -1.4499801793      -14.1642540134
 H        -9.6213662257       -0.2410644796      -15.1863445298
 H       -10.2124964845       -1.8792267774      -14.9335772620
 H        -6.6725758254        3.8966312465      -10.7263214886
 H        -6.1160760985        4.0863588028       -8.9818792306
 H        -7.8243841614        4.0543318763       -9.4312447494
 H        -5.2253973540        0.6249164640      -10.2445085524
 H        -4.5411002939        1.9771994255       -9.5409836071
 H        -5.0534566363        2.1660550844      -11.1433003940
 H        -6.0783601522        0.6211323394       -2.2575486642
 H        -6.8187406870       -0.8354147695       -2.4884092323
 H        -7.5141612312        0.4992505298       -3.1270622737
 H        -3.8517092387        1.0532281070       -3.4204644307
 H        -3.4924679975        0.0251425777       -4.7184682039
 H        -3.8046222995       -0.6528803472       -3.0894494446
 H        -5.7739616400       -6.1591504736       -6.3149374000
 H        -6.5282680857       -7.0061230233       -7.6371182307
 H        -7.0236124874       -5.3684284405       -7.3253380228
 H        -3.1568340613       -5.5637416190       -9.3047120096
 H        -4.0893837481       -6.9467197284       -9.5550490868
 H        -3.3122793728       -6.6270396925       -7.9336059367
 H        -3.1187459349       -0.6444861619      -13.3619914206
 H        -3.4370599523       -0.5487328154      -11.6958649139
 H        -4.6745767702       -0.1674080482      -12.8121194754
 H        -5.0954633014       -2.4068558988      -14.6265796387
 H        -4.3008211898       -3.8247887718      -14.2262730224
 H        -3.3802967740       -2.2412761914      -14.8364235728
 H         2.0654543849       -5.3003351444      -14.2998565220
 H         0.9479841911       -6.0024299866      -13.0943014472
 H         2.5699583947       -6.4287595259      -13.1209490757
 H         3.1333490463       -5.5272951688      -10.7445144348
 H         1.4233093053       -5.2211597610      -10.3934689727
 H         2.6542306752       -3.8503590593      -10.2529704020
 H         7.3562175588       -3.0398141612      -10.2105990489
 H         7.3702546162       -1.1992860391      -10.2757055324
 H         8.8646956874       -2.1649074506      -10.0388335083
 H         9.8025439530       -1.0495531256      -11.7611767678
 H         8.4959057767       -0.1826239219      -12.4894584499
 H         9.3242284844       -1.2092101973      -13.4638234171
 H        11.9106738416       -6.0298243021      -15.3198926337
 H        13.1916690035       -5.6144128697      -14.1755520605
 H        13.4901939978       -5.1940970338      -15.8577568980
 H        13.0131411622       -2.3708951403      -16.6298627456
 H        14.1143258671       -3.0146171717      -15.3014375799
 H        12.9711852911       -1.6975251670      -15.0916241564
 H         5.5242331024       -4.1810613799      -19.7458293779
 H         5.6590180523       -4.6781319700      -17.9523865707
 H         6.6000063806       -5.5456791685      -19.2236796603
 H         8.2742687307       -2.0609730329      -20.0679584154
 H         6.8382715296       -3.0219316132      -20.7765181820
 H         8.3233805580       -3.7381026466      -20.4751308806
 Na        6.9692899295       -3.5605613549      -14.9184331239
 Na       -7.7845572098       -1.7447059421      -10.0584978409
