232

 C         5.7870877164       -1.0136607302      -18.4618363900
 C         6.1285447339       -2.4094142057      -17.8118110858
 O         5.7036458914       -2.7249357078      -16.7568771716
 C         6.9108478650       -3.4277540370      -18.7391900498
 C         8.0261112463       -3.9757776901      -17.8462973536
 O         7.7167005797       -4.6288467905      -16.8537267249
 C         9.4846952532       -3.8415262365      -18.1531340051
 C        10.4255324924       -4.2897404744      -17.0614542399
 C        10.6306374991       -3.5395145931      -15.6978464269
 O         9.6951520302       -2.9996729632      -15.1078225629
 C        12.0824644468       -3.6223748970      -15.0941871720
 C        11.9444450735       -3.3805212404      -13.5940135618
 O        12.3679066366       -2.3189000389      -13.0672332706
 C        11.1163146868       -4.2975913207      -12.7796248102
 C        10.2235713357       -3.6813416291      -11.7194866559
 C         8.7739618852       -3.4491400935      -12.3053790510
 O         8.2625873682       -4.3268188184      -12.9776745488
 C         8.1358978458       -2.0774403992      -11.9415995145
 C         6.7047787940       -1.9737762984      -12.6258613926
 O         6.6914618556       -1.8649042657      -13.8344174100
 C         5.3670812945       -2.1153312390      -11.7923856307
 C         4.1456579421       -2.3195927134      -12.7290284203
 C         3.8089480218       -3.7549176840      -13.0735613206
 O         4.5536519273       -4.4408107719      -13.6858669225
 C         2.3864988556       -4.2810334656      -12.5113575473
 C         1.2167531454       -3.3151495374      -12.8088095562
 O         1.2313522189       -2.6298603873      -13.8057338261
 C        -0.0582222062       -3.2762026389      -11.9397771469
 C        -1.1795173485       -2.4471015156      -12.5635893656
 C        -2.5438786237       -2.8882975694      -11.9632274079
 O        -2.7378546050       -3.6994658535      -11.0748413476
 C        -3.7769456102       -2.2464530474      -12.6748770011
 C        -5.0649245440       -2.5896060394      -11.7321004059
 O        -5.3521285241       -1.8372273326      -10.8078344123
 C        -5.9454861986       -3.9382854503      -11.9266526698
 C        -5.5334248132       -5.0569835842      -11.0108343722
 C        -6.0077244390       -4.8605894205       -9.5157049103
 O        -6.9761237361       -4.2226921055       -9.2558890794
 C        -5.1256377825       -5.4866756280       -8.4092612981
 C        -4.6280774214       -4.1825449880       -7.5743431885
 O        -3.4745122673       -3.8309981450       -7.5062950265
 C        -5.7528160688       -3.3974878866       -6.8344404104
 C        -5.0616371385       -2.2038880464       -6.0451507822
 C        -6.1046810969       -1.5539272245       -5.1188899421
 O        -7.2069540165       -1.9948754743       -4.9816495185
 C        -5.6296268188       -0.1613088456       -4.4440238642
 C        -5.7289929737        0.9965846267       -5.4950112580
 O        -4.8143845851        1.4558770046       -6.1553652158
 C        -7.2662214956        1.2996575949       -5.8084526136
 C        -7.3793805321        2.0863948440       -7.0995570151
 C        -7.1854675465        1.2852480897       -8.3643318658
 O        -6.9339556390        0.0811339244       -8.3025258647
 C        -6.9991392226        2.1761835350       -9.6580085352
 C        -7.9871508109        1.5408359047      -10.7707654212
 O        -7.9489778093        0.3485492876      -10.9186299397
 C        -8.8247982991        2.4128597500      -11.6223611651
 C        -9.2967723553        1.7052042081      -12.8753206869
 C       -10.7089156007        0.9262675073      -12.7420408844
 O       -11.5991422190        1.3347158479      -12.0801383027
 C       -10.6980215940       -0.6528181294      -13.2394049276
 C       -10.3331063553       -1.4555195376      -11.8694970986
 O        -9.1524009367       -1.5902040649      -11.6231883584
 C       -11.5113924060       -1.7256665535      -10.8354827791
 C       -11.4114903033       -2.9346971307       -9.8637549041
 C       -10.6783804913       -2.3621455834       -8.6481154014
 O        -9.5622782879       -1.9279473466       -8.6674200887
 C       -11.2830362543       -2.5116720370       -7.2642528193
 C       -12.8736752484       -2.4104664289       -7.1873831720
 O       -13.5576810687       -2.5604517999       -8.1655421027
 C       -13.5435606399       -2.4103727609       -5.8160124588
 C       -14.7617291965       -1.5114180195       -5.7644658908
 C       -14.2860866240       -0.0693241399       -5.8058488190
 O       -13.2149138378        0.1830401189       -6.3481034883
 C       -15.0779551898        1.0553643142       -5.0611640520
 C       -14.1813881533        1.3500197475       -3.8027434846
 O       -14.3253745858        0.9479984921       -2.6713748839
 C       -12.8011559115        2.0021386063       -4.1115135865
 C       -12.1548271189        2.5709244614       -2.8495908878
 C       -10.6373140072        2.7462975436       -2.9499076659
 O       -10.0524055973        2.5719492833       -4.0066531286
 C        -9.6754036975        3.3700592856       -1.7685051449
 C       -10.6554358223        4.1878973784       -0.7023217467
 O       -11.2381754632        3.5990356056        0.1320373685
 C       -10.7387494324        5.7419087030       -0.9712063989
 C        -9.1749397402        2.1726031346       -0.9593756263
 C        -8.4931541426        4.0973570366       -2.4814469600
 C       -15.1658598479        2.3699756101       -5.9228468149
 C       -16.4707219564        0.6322359587       -4.5978579279
 C       -10.9430018746       -3.9778800724       -6.9428882896
 C       -10.5369047852       -1.5802208872       -6.2265443974
 C       -12.1090004873       -0.9817979570      -13.8036226157
 C        -9.5510696253       -0.9999033679      -14.3169613230
 C        -7.2412826406        3.6955410998       -9.5227234343
 C        -5.5333365878        1.9440700774      -10.1566235885
 C        -6.6710223554        0.2329094484       -3.2308787479
 C        -4.2556721209       -0.4473236143       -3.8566133881
 C        -6.0474881117       -6.3670746599       -7.5813163828
 C        -3.8471874226       -6.2260210319       -8.8309065170
 C        -3.5858343108       -0.7740171722      -12.7476542030
 C        -3.9335797178       -3.0414280663      -14.0143771391
 C         1.8529930570       -5.5670652284      -13.2256959904
 C         2.5273718459       -4.4665439033      -10.9580812934
 C         8.2679622805       -1.8331196808      -10.3037585349
 C         8.9868448586       -1.0019193548      -12.5378479352
 C        12.6655979154       -5.0779059397      -15.2806901702
 C        12.9247554626       -2.5030442974      -15.8334614350
 C         5.9196550595       -4.6298862150      -19.1336507331
 C         7.4826286500       -2.9343623383      -20.0628887643
 H         5.3374457968       -1.2649352274      -19.4211402610
 H         6.7487750285       -0.3918103349      -18.5300677883
 H         5.0907968808       -0.5791771518      -17.8181201529
 H         9.7393941204       -2.8229036467      -18.4864653061
 H         9.7503985137       -4.4663576852      -19.0260897896
 H        11.4524196279       -4.1589632727      -17.5103316317
 H        10.2622811127       -5.3588039651      -16.7267531920
 H        11.8717774491       -4.9056530984      -12.2465750466
 H        10.5034677970       -4.9894602973      -13.4050109965
 H        10.6083276850       -2.7902638079      -11.1952471975
 H        10.0703206465       -4.3556553951      -10.8834982812
 H         5.2157655178       -1.2334718079      -11.1130700726
 H         5.4870086587       -2.8664645201      -11.0295605181
 H         4.3974123069       -1.8631360856      -13.7343553962
 H         3.2217198305       -1.7246079983      -12.5231180499
 H         0.1252185091       -3.0696365714      -10.8573228670
 H        -0.3695719346       -4.3219603207      -11.9157898500
 H        -1.2644957097       -2.4363341497      -13.7036940599
 H        -1.1430288095       -1.4080923984      -12.1849187581
 H        -5.7519737708       -4.2920097273      -12.9526777250
 H        -7.0907436552       -3.7692743093      -11.8014568238
 H        -4.4411367064       -5.1594302355      -10.9280133001
 H        -5.8814039665       -5.9776066849      -11.5248055303
 H        -6.2556823735       -4.0421643816       -6.0932019791
 H        -6.4606602477       -3.1380255329       -7.5488528290
 H        -4.5648243993       -1.5018377135       -6.7328187166
 H        -4.1461104890       -2.5655676238       -5.5020848556
 H        -7.6457475476        1.8015797329       -4.9119574730
 H        -7.7543589981        0.2964926805       -5.9505702270
 H        -6.5834525890        2.8087194385       -7.0338367123
 H        -8.2933614604        2.6160931397       -7.2111132420
 H        -8.3364959586        3.2922868135      -11.8998679274
 H        -9.6847049044        2.7541955268      -10.9980284866
 H        -8.5715910995        0.9156526415      -13.1769598888
 H        -9.4518158886        2.4272664333      -13.6453633352
 H       -12.3679455052       -1.9726511529      -11.4204381363
 H       -11.8111676435       -0.8427513416      -10.2758605090
 H       -10.7981862626       -3.7319951891      -10.3539797203
 H       -12.4650893716       -3.2636666487       -9.6727433076
 H       -12.9405927938       -2.3214097021       -4.9286365965
 H       -13.9271935882       -3.4139193745       -5.7331000939
 H       -15.3732597176       -1.6828151430       -4.9377392509
 H       -15.2744577465       -1.6398410165       -6.7329616749
 H       -13.0837916209        2.8884798862       -4.6493130457
 H       -12.1578239690        1.3228363477       -4.6504510314
 H       -12.4487207795        1.9523286913       -2.0362286133
 H       -12.6095892334        3.5589411776       -2.6184439280
 H       -11.3006147718        6.2211791790       -0.1693601472
 H       -11.1562446921        5.9499340353       -1.9078739359
 H        -9.7376898813        6.0691041015       -0.9672439124
 H        -8.8298855406        1.3195022547       -1.5230555006
 H        -9.9595477561        1.8546367241       -0.2834255446
 H        -8.3739788799        2.5162510726       -0.3859497693
 H        -7.8942315306        4.8207775979       -1.9041668332
 H        -8.9565137550        4.7359682339       -3.1940535644
 H        -7.8763211888        3.2957707963       -2.9254304404
 H       -16.1642374539        2.4803711223       -6.3759655973
 H       -14.4562193271        2.4192917578       -6.6860552084
 H       -15.0887419038        3.2666040436       -5.2551917504
 H       -16.5177130583       -0.1000028874       -3.8506177423
 H       -17.0428796338        0.1829607640       -5.3997826097
 H       -17.0204288432        1.3995776634       -4.2097962352
 H       -11.4327261553       -4.8100511268       -7.5172188187
 H       -11.1679094221       -4.2451503174       -5.9068651788
 H        -9.8490821556       -3.9918888727       -7.2049847079
 H       -10.3123307606       -2.1004246104       -5.2827016950
 H       -11.1169400935       -0.7054551455       -6.0528165178
 H        -9.5706486219       -1.1940982043       -6.5643024430
 H       -12.0999013509       -0.6270370736      -14.7807304068
 H       -12.9090806807       -0.3883543190      -13.3248992426
 H       -12.4231348019       -2.0370843891      -13.9448655433
 H        -8.4608166184       -0.8498392040      -14.0909186428
 H        -9.7570385414       -0.3909839946      -15.2247808775
 H        -9.5268149468       -2.0472464915      -14.6559498060
 H        -7.1047100049        4.0925619635      -10.5769224163
 H        -6.3868494883        4.1167850865       -9.0687051796
 H        -8.2114269664        3.8517660178       -8.9357105444
 H        -5.2578698756        0.9631416170      -10.3821725841
 H        -4.7987403649        2.1265478956       -9.3622236686
 H        -5.2106232200        2.5806849109      -10.9594383176
 H        -6.7887634376        1.2974823489       -3.1040650868
 H        -6.3076847017       -0.1508967471       -2.1889523464
 H        -7.7262266842       -0.2954570970       -3.5233036705
 H        -4.0464327555        0.2712862767       -3.0254863730
 H        -3.5151184820       -0.3032852932       -4.6204897753
 H        -4.2962120250       -1.5145520416       -3.4401552607
 H        -5.6158938967       -6.8334449418       -6.7707176303
 H        -6.5759280750       -7.0123653099       -8.2512639946
 H        -6.8533151269       -5.8048762592       -7.0921467143
 H        -3.0791905127       -5.6070033704       -9.2664523316
 H        -4.0531663340       -7.0638071062       -9.5339546895
 H        -3.4091459815       -6.7629109663       -8.0259345436
 H        -2.7951543709       -0.4288530031      -13.3562089178
 H        -3.5292813492       -0.1690895508      -11.8172476342
 H        -4.4325197489       -0.3410688991      -13.2811050841
 H        -4.9398817801       -2.9491716070      -14.3986635112
 H        -3.8499156959       -4.0434290113      -13.7285198389
 H        -3.3018612896       -2.5631811891      -14.7532259710
 H         1.3304715767       -5.2679766011      -14.1901239364
 H         1.0395859970       -6.0671269241      -12.6288576579
 H         2.6307599103       -6.2849139283      -13.5364222765
 H         3.0901347636       -5.3550979476      -10.7728247528
 H         1.5558722700       -4.6339729486      -10.5173040237
 H         2.9019742323       -3.6448374225      -10.4253647774
 H         7.7814737399       -2.6744279149       -9.8085780201
 H         7.7182352543       -0.9737046357      -10.2750472740
 H         9.3022712184       -1.8925570717       -9.9347137015
 H        10.0121937235       -0.8577436597      -12.0518254169
 H         8.5875069598       -0.0571376752      -12.6579917287
 H         9.2219719680       -1.3185086917      -13.5678488049
 H        12.1021832583       -5.7848377493      -14.7537319558
 H        13.5791779225       -5.1601390201      -14.6227915143
 H        12.7503108408       -5.2833281639      -16.3482686161
 H        13.1229557281       -2.8571521208      -16.8616295194
 H        13.8654073900       -2.1028321093      -15.3117957373
 H        12.4047229540       -1.5821212024      -16.0450538190
 H         4.9129428696       -4.3472374095      -19.3949527115
 H         5.8959339106       -5.2866052171      -18.2419171684
 H         6.4783972726       -5.1633344955      -19.8777919026
 H         8.2190845928       -2.1168457795      -19.8274350908
 H         6.6461494539       -2.6502492403      -20.6743610375
 H         7.9143516223       -3.7517266009      -20.5742789318
 Na        6.7383227641       -3.8557251044      -14.9641604624
 Na       -7.5675439687       -1.6997264956       -9.8414221021
