232

 C         5.6763996212       -1.0851403929      -18.2737621335
 C         5.9565447955       -2.4771090914      -17.7696207403
 O         5.6181835473       -2.8099430025      -16.6344700207
 C         6.7037351565       -3.5609989557      -18.6191771602
 C         7.8085841110       -4.1836973728      -17.7540796614
 O         7.5297124377       -4.9545405165      -16.8800463119
 C         9.2301191384       -3.7272180729      -17.9529792756
 C        10.4120978159       -4.5172299432      -17.2334061440
 C        10.5310257814       -3.7625028524      -15.8304043791
 O         9.6003449490       -3.1001349362      -15.4533601391
 C        12.0206931812       -3.5561289527      -15.1945046643
 C        11.8484748641       -3.2592392303      -13.6788363276
 O        12.3235703426       -2.3245793272      -13.0993332918
 C        11.1247241906       -4.2584472959      -12.7656880779
 C        10.1951071952       -3.6963490337      -11.7254721823
 C         8.8713103303       -3.2779127089      -12.2455345019
 O         8.1545410018       -4.0065425675      -12.9050327663
 C         8.1830797092       -1.9091537241      -11.9348796784
 C         6.8237729022       -1.9250850870      -12.7121368524
 O         6.7096231696       -1.8948232962      -13.9217822850
 C         5.5397662997       -2.1324030797      -11.7930306463
 C         4.2676067179       -2.2532571216      -12.7471774990
 C         3.7761016091       -3.6674380978      -13.2402463347
 O         4.5304278760       -4.3792132801      -13.9679000444
 C         2.5830195138       -4.2533766274      -12.6159362269
 C         1.3232646147       -3.2407126809      -12.9954501018
 O         1.2886125123       -2.6683934232      -14.0533954769
 C         0.1369247728       -3.2258019717      -12.0526781315
 C        -0.9887308511       -2.2182440301      -12.2131840576
 C        -2.3998818782       -2.8985314286      -11.8215721111
 O        -2.5057624587       -3.7800541305      -11.0282627941
 C        -3.6879429375       -2.3543035063      -12.6294493152
 C        -5.0461007761       -2.5328523346      -11.7924358178
 O        -5.3212857840       -1.7393997239      -10.9214920449
 C        -6.0583901934       -3.7285697670      -12.0152366077
 C        -5.4305480278       -4.9563053553      -11.1089247431
 C        -5.9279906310       -4.9198589175       -9.6948035425
 O        -7.0405395451       -4.3485081287       -9.5076290685
 C        -5.1890750834       -5.5680315457       -8.4478345336
 C        -4.7552623146       -4.1712481105       -7.6699490619
 O        -3.6575394503       -3.7507557542       -7.8371473390
 C        -5.7840608581       -3.4476003970       -6.7943654571
 C        -5.1382490024       -2.3804359463       -6.0328497692
 C        -6.1316978870       -1.7257187573       -5.0593883669
 O        -7.2650356227       -2.1760300645       -4.8286292524
 C        -5.6924290463       -0.3605334211       -4.3515371908
 C        -5.9256173760        0.8920688938       -5.3836697833
 O        -4.9562743902        1.4927917194       -5.7624652693
 C        -7.4065566782        1.3167906465       -5.8352480356
 C        -7.3587154096        2.2064241733       -7.0790370007
 C        -7.0999857035        1.4602406321       -8.3503024528
 O        -6.9978713597        0.2486896964       -8.3646212909
 C        -7.0547358575        2.2232214639       -9.7382273283
 C        -7.9894060783        1.5190255169      -10.7618832335
 O        -7.9178300427        0.3386100124      -11.1072425865
 C        -9.0502869793        2.3668353226      -11.5275237521
 C        -9.4660642346        1.8232865755      -12.9113975337
 C       -10.7560731826        0.8887703999      -12.7368361403
 O       -11.6907024537        1.3912553058      -12.2042784530
 C       -10.5846349609       -0.7206482493      -13.1447876304
 C       -10.3052262553       -1.4336826752      -11.7630794512
 O        -9.2661825311       -2.0394324094      -11.5722063909
 C       -11.5423257065       -1.4276454234      -10.8569220383
 C       -11.2962018644       -2.6989795979       -9.9800088552
 C       -10.5700845016       -2.3781999451       -8.7027380993
 O        -9.4117766844       -1.9697391749       -8.6977116420
 C       -11.2274754438       -2.5704590192       -7.3037148641
 C       -12.7962013085       -2.5634467889       -7.1240569951
 O       -13.4977786348       -2.6805762011       -8.1203279904
 C       -13.4289233756       -2.5637281222       -5.7158658611
 C       -14.6389546206       -1.5420561011       -5.6385783201
 C       -14.2195199703       -0.0574808476       -5.7374042919
 O       -13.2353432945        0.2161453146       -6.3787621722
 C       -15.0206653927        1.0835541229       -5.0121810037
 C       -14.0925429778        1.3574389942       -3.6956788635
 O       -14.4888113461        1.0898898941       -2.5694030664
 C       -12.7368747141        1.8905282955       -3.9383076793
 C       -12.0564465743        2.5731568580       -2.7164908116
 C       -10.5390954874        2.7693286716       -3.0443735624
 O       -10.0951640081        2.5626327426       -4.1364436594
 C        -9.6566951585        3.3364373046       -1.8187921547
 C       -10.6612997139        4.2444932857       -0.8351543732
 O       -11.2686749304        3.7142029019        0.0924793876
 C       -10.6310012118        5.7784824200       -1.0316931769
 C        -9.2516236280        1.9481437874       -1.0562846583
 C        -8.4691401204        4.1135550521       -2.3313345587
 C       -15.0904479497        2.3197500111       -5.9522573865
 C       -16.3738775481        0.7677177133       -4.4133879031
 C       -10.7287422704       -4.0222761319       -6.7646638350
 C       -10.7274752521       -1.4636955556       -6.2673758533
 C       -11.9892753533       -1.0808845821      -13.6635511672
 C        -9.4520713521       -0.9554050513      -14.1976612135
 C        -7.5033841185        3.7733847832       -9.5193907050
 C        -5.5612953480        2.0688218647      -10.1828328890
 C        -6.5846482813       -0.2550718182       -3.0879900202
 C        -4.1496096239       -0.2153650972       -4.0886166772
 C        -6.1258605304       -6.5116458949       -7.6825845413
 C        -3.9080817679       -6.2450994777       -8.8489916492
 C        -3.8357597499       -0.7729153952      -12.8658378698
 C        -3.7766343937       -2.9391382584      -14.0274591399
 C         2.3358521548       -5.6469555724      -13.1862656246
 C         2.9751478373       -4.3740607631      -11.1793428263
 C         7.9422060751       -1.6865952733      -10.3752812806
 C         9.0089662810       -0.7705139072      -12.5022746080
 C        12.9098857780       -4.8603813288      -15.3168765158
 C        12.7884893480       -2.4477759698      -15.8448589591
 C         5.7620666255       -4.6389059116      -19.0871924752
 C         7.2698256767       -2.8003843119      -19.8538791604
 H         5.0673263030       -1.1270545747      -19.1700246317
 H         6.6296463460       -0.6755556139      -18.3661118413
 H         5.0699141658       -0.5508349423      -17.4700850186
 H         9.3255221464       -2.6285191225      -17.8224441182
 H         9.4145753022       -3.8205815603      -19.0484200617
 H        11.3098940655       -4.4243969497      -17.8155441695
 H        10.2001208861       -5.5235798199      -16.9124443095
 H        11.9311774638       -4.7528702018      -12.2099362400
 H        10.6059943676       -5.0099633605      -13.3409719363
 H        10.6471174872       -2.9913663641      -11.0328805853
 H         9.8026698902       -4.4981874212      -11.0379406339
 H         5.3790747693       -1.3334076166      -11.0940901761
 H         5.6752543723       -3.0312858662      -11.1281022184
 H         4.5036660788       -1.7905893981      -13.6565433392
 H         3.4425070289       -1.6375462925      -12.5105976818
 H         0.6745637890       -3.0442674612      -11.1349276790
 H        -0.1906644927       -4.2592172919      -11.8052900195
 H        -1.1043051228       -1.8933535284      -13.2158707462
 H        -0.8666589351       -1.3136350711      -11.6438338252
 H        -6.2312767270       -4.0938768571      -13.0369761573
 H        -6.9780581607       -3.3942140703      -11.6300298785
 H        -4.3254763270       -4.9901594309      -11.1026905055
 H        -5.7505419964       -5.9287422055      -11.5190666091
 H        -6.3094088313       -4.1202601280       -6.0965905141
 H        -6.6221685312       -3.0425667440       -7.4773597951
 H        -4.9334698163       -1.5744312613       -6.7891422158
 H        -4.1421033380       -2.6223581841       -5.6490680814
 H        -7.8462924506        1.9218167788       -4.9649332894
 H        -8.0298761486        0.4486527981       -6.1141137309
 H        -6.5237041969        2.9532305694       -6.8555394860
 H        -8.3673240220        2.7230722112       -7.2614897754
 H        -8.6276877338        3.4003756698      -11.7638182116
 H        -9.8954403954        2.5455104994      -10.9170984075
 H        -8.6859543191        1.1731634001      -13.2289532525
 H        -9.7093884354        2.6494185367      -13.6336806289
 H       -12.5519705593       -1.4303577559      -11.3162946504
 H       -11.5959491102       -0.5554755288      -10.2041287347
 H       -10.6669539883       -3.4035199085      -10.5023993414
 H       -12.3035624334       -3.0691846896       -9.7726268699
 H       -12.6777655000       -2.2926176659       -4.9357357667
 H       -13.8704043233       -3.5153417901       -5.2793469477
 H       -15.0780265646       -1.6992547391       -4.5854553860
 H       -15.4095384753       -1.7064768534       -6.4282466133
 H       -12.7365318731        2.4924284101       -4.8802397434
 H       -12.1878150283        0.9463730800       -4.1528320801
 H       -12.3383191231        2.0184361131       -1.7859433146
 H       -12.4260900885        3.5788095364       -2.5689889992
 H       -11.4780279406        6.1345246438       -0.4406694588
 H       -10.7581540149        6.0445486409       -2.1317516243
 H        -9.6704077774        6.1616577935       -0.6064880880
 H        -9.0417094081        1.2653526401       -1.8760758193
 H       -10.0425757265        1.5462302520       -0.4432190000
 H        -8.3371800138        2.0398075838       -0.4254640595
 H        -8.2591421061        4.8963215525       -1.5967815439
 H        -8.7907833977        4.7416992272       -3.2020776409
 H        -7.5820639407        3.4853924422       -2.4181923775
 H       -15.7350965318        2.0981179210       -6.8292117804
 H       -14.0595917121        2.4898700891       -6.4043035178
 H       -15.4701217747        3.1960498041       -5.4908998429
 H       -16.5348592933       -0.2762980627       -4.1689447751
 H       -17.2708306366        0.9967257130       -5.0134377886
 H       -16.4430489766        1.2494086492       -3.4093015409
 H       -11.0138206353       -4.7906792842       -7.4625884559
 H       -11.2681805025       -4.3066384468       -5.8644507761
 H        -9.6618578537       -4.0549277524       -6.6792635106
 H       -10.8318003198       -1.7619792277       -5.2663426562
 H       -10.9690323803       -0.4466403879       -6.4853037095
 H        -9.6539204304       -1.4541884259       -6.4486643928
 H       -12.2546467954       -0.7271152076      -14.7291800190
 H       -12.7412337212       -0.6537514718      -13.0034873456
 H       -12.1283029409       -2.1499203435      -13.7422490992
 H        -8.4899316020       -1.0894665303      -13.7684936982
 H        -9.3482045228       -0.1047402151      -14.9077998838
 H        -9.5937541976       -1.8132787165      -14.8668474476
 H        -7.0005479373        4.3465154876      -10.2441578808
 H        -6.9213913634        4.1517730119       -8.6524713557
 H        -8.5422708067        3.8438259003       -9.4547068194
 H        -5.0443131516        1.1079086807       -9.9941461833
 H        -4.8581385156        2.7583663265       -9.6964859211
 H        -5.4218603984        2.1847032213      -11.2751203710
 H        -7.4784519164        0.2766119308       -3.3410458690
 H        -6.0605731683        0.3215707312       -2.4306691647
 H        -6.8516184008       -1.1040724029       -2.6878816541
 H        -3.8403779624        0.7977816574       -4.0351496672
 H        -3.6269239288       -0.6708791565       -4.9310377261
 H        -3.8545482130       -0.7079243900       -3.2044196265
 H        -5.8403905331       -6.6286753927       -6.5853672347
 H        -6.1004077215       -7.4550191732       -8.2512406930
 H        -7.1442282831       -6.2519593661       -7.5616209824
 H        -3.2100210492       -5.5340963677       -9.2686517524
 H        -4.0812790725       -7.1009128736       -9.4958264592
 H        -3.4084494179       -6.8130615423       -8.0712268748
 H        -2.9563943920       -0.2880189224      -13.3560021464
 H        -3.8624176998       -0.2470737907      -11.9220500489
 H        -4.6440579885       -0.3791663425      -13.4492628673
 H        -4.7977155418       -2.7668191481      -14.3614842090
 H        -3.5511715396       -4.0398251480      -14.0420343382
 H        -3.1403922310       -2.3324828586      -14.6229135336
 H         2.2619053466       -5.7748903809      -14.2313154833
 H         1.3869097362       -6.0034422297      -12.8098575868
 H         3.1486406707       -6.2896925100      -12.8286889913
 H         4.0657465949       -4.5646282485      -11.0528232011
 H         2.4026072928       -5.1204791669      -10.6146929078
 H         2.6519197438       -3.4287403751      -10.6563320578
 H         7.5111523733       -2.5376757142       -9.9322661214
 H         7.3981764666       -0.7129863289      -10.2436280342
 H         8.9698269735       -1.7069152157      -10.1242650718
 H        10.0163216032       -0.9153474264      -12.6807331596
 H         8.9703513887        0.1415535499      -11.8500515252
 H         8.6006057912       -0.4378269265      -13.4648965212
 H        12.7873892165       -5.5793435931      -14.4696215140
 H        13.9187848427       -4.6102635644      -15.1827237584
 H        12.6172547989       -5.2748274893      -16.2505241015
 H        13.1974351903       -2.6523464482      -16.8125154946
 H        13.6015749828       -2.0920536656      -15.1716760759
 H        12.2643262105       -1.4787209127      -15.9017658004
 H         5.1557819664       -4.0935188424      -19.8462171805
 H         5.0557823382       -5.0161878653      -18.3292319258
 H         6.4159696080       -5.4650532984      -19.5488935317
 H         7.5682387069       -1.8417031571      -19.5979635060
 H         6.4631860109       -2.6589304089      -20.5683549532
 H         7.9904073366       -3.5051962805      -20.2415457040
 Na        6.5403238405       -4.1079184366      -14.7372012256
 Na       -7.2775639740       -1.7619849176       -9.6018441911
