232

 C       -13.0207047702      -15.6024600532       -2.6597582519
 C       -14.3651784696      -15.1722056694       -2.9109551021
 O       -14.6741612333      -13.9653803032       -2.8166881182
 C       -15.5133510095      -16.2132329793       -3.3051506209
 C       -15.8322131449      -15.8409037487       -4.8007351489
 O       -16.5750181848      -14.8845561534       -5.0283240640
 C       -14.9844061923      -16.5764835932       -5.8795021249
 C       -15.1894935014      -15.8496689826       -7.2684578201
 C       -14.6511083940      -14.3871454229       -7.2614046338
 O       -13.9350679595      -14.0350608469       -6.3752927184
 C       -14.9216323791      -13.4282067538       -8.5129513344
 C       -15.5668708238      -12.1352767501       -7.9292966737
 O       -16.5847401336      -12.3468599964       -7.2936390746
 C       -14.9914428693      -10.6894697862       -8.1079150550
 C       -15.6372295116       -9.7621003041       -7.0698411751
 C       -14.8143877833       -9.7351535803       -5.7825035982
 O       -14.6980694397      -10.7440433533       -5.0185718573
 C       -14.3253286129       -8.3677960130       -5.2444755425
 C       -13.2319462294       -7.6909399306       -6.1446634014
 O       -13.2011215290       -7.9558097469       -7.3336998570
 C       -12.2652700477       -6.6855937458       -5.6068067268
 C       -11.9935652674       -5.5041117601       -6.4750962711
 C       -12.9829152229       -4.3200655811       -6.1549501677
 O       -13.7300060427       -4.4826455653       -5.2048972707
 C       -12.9642164215       -3.0495608080       -6.9648679202
 C       -11.4577173108       -2.4828558649       -6.7512442971
 O       -10.8774437226       -2.7334572986       -5.6981841869
 C       -10.8170289099       -1.4124517309       -7.7227108719
 C        -9.4177342448       -0.7367816672       -7.1658154830
 C        -9.7593370993        0.6718427414       -6.5541193595
 O       -10.4124402830        1.4011221126       -7.2340419105
 C        -9.3091328573        1.1233267214       -5.0917421817
 C        -7.7103831227        1.0331957965       -5.1411480345
 O        -7.2228299416       -0.0940293763       -5.3147403920
 C        -6.8704933654        2.2866144081       -5.3602226164
 C        -6.8564668994        2.6174131972       -6.8571852753
 C        -5.8460701961        3.6487249008       -7.3676902639
 O        -4.9941995406        4.2330174567       -6.7726442880
 C        -5.9925035219        3.9472859850       -8.8824220486
 C        -5.0961859052        2.8024229847       -9.6297815040
 O        -5.5913218985        1.6976435515       -9.7226436074
 C        -3.6996206934        3.1957614010       -9.9531336673
 C        -2.6409641362        2.2146095765       -9.3339893886
 C        -1.3073492715        2.2426596680      -10.0813768210
 O        -1.1102601333        2.7310688610      -11.1198205714
 C        -0.0338397127        1.7128361845       -9.3002858173
 C         1.3013398584        2.0111704796       -9.9909839546
 O         2.2331575944        1.2343970681      -10.2278594705
 C         1.4710992391        3.4869095483      -10.4374239636
 C         2.7937542435        3.7908246891      -11.0824193799
 C         2.6515299705        5.3449267903      -11.5320807235
 O         1.8814358998        6.1414845788      -10.9160280921
 C         3.4857983051        5.9405941225      -12.7471075770
 C         3.7344160700        4.8701712634      -13.8184607036
 O         4.7899888073        4.2923194213      -13.9198604709
 C         2.4367534232        4.4039018853      -14.5202859500
 C         2.3651117069        5.0947117325      -15.8868637526
 C         3.3143073326        4.4246647043      -16.9056970865
 O         3.8140018171        3.2758101904      -16.7193511476
 C         3.8168394246        5.1988732934      -18.0951266951
 C         5.4524378546        5.1030965250      -18.0977294824
 O         6.0242160657        4.4334296305      -18.9026391532
 C         6.1670308703        5.7138869605      -16.8892376188
 C         7.6475508730        5.4527534123      -16.9589229837
 C         8.1064463452        4.0480189862      -17.0448084840
 O         7.4078117594        3.2212771935      -16.4537700689
 C         9.4345641516        3.6755860090      -17.7137287693
 C        10.4407622240        3.6663197358      -16.4910361181
 O        10.2740866229        4.4974738455      -15.6554496662
 C        11.4913631247        2.4980671192      -16.3952056055
 C        12.3334956723        2.7081337465      -15.1330060634
 C        11.5569169206        2.0805133079      -13.9596748397
 O        10.6933347805        1.2349912904      -14.2088247196
 C        11.8569904822        2.4155701514      -12.5341336376
 C        10.5419879375        1.9410527692      -11.8164834635
 O        10.5632656953        0.9991097620      -11.0698717253
 C         9.2121276159        2.6638239912      -12.0032225918
 C         8.0505682183        1.6742362398      -11.6422713816
 C         6.9565517851        1.7312339656      -12.7581416502
 O         6.8103431866        2.6659909144      -13.4394846143
 C         6.0679891450        0.3748601944      -13.0588412839
 C         6.5186146486       -0.2770378132      -14.4306336593
 O         6.0962709903        0.3237615661      -15.4095870447
 C         7.5869581648       -1.4010894632      -14.6370091799
 C         6.3386400558       -0.7740158493      -11.9651469183
 C         4.5175842336        0.6763321625      -12.9339208783
 C        13.1122669601        1.5618318827      -12.0163881759
 C        12.1961683297        3.9247197970      -12.2297854785
 C         9.1956792341        2.1506072788      -18.1501757811
 C        10.0161361737        4.5156393657      -18.7962277186
 C         3.1939000602        4.6265480115      -19.4009842658
 C         3.6177919502        6.8009839376      -17.9115894776
 C         2.7612459450        7.1373893068      -13.2960517837
 C         4.8566497113        6.4750025900      -12.2722020978
 C         0.0566321256        2.5312490270       -7.8817261474
 C        -0.0772366813        0.1448477036       -9.1244784506
 C        -7.5184431436        4.0437737643       -9.3006267857
 C        -5.6553607059        5.4127854895       -9.0609688743
 C        -9.7950330518        2.5202035009       -4.9031501845
 C       -10.0273698084        0.0715156629       -4.1533846606
 C       -13.2357629143       -3.2940726785       -8.4257824692
 C       -13.8077024783       -1.9645705234       -6.3540354392
 C       -15.5605016760       -7.3453592997       -5.1302469350
 C       -13.7124234250       -8.5920428662       -3.8003891668
 C       -13.6388268625      -13.1780723407       -9.4302267832
 C       -16.1372159021      -14.1517488917       -9.3815748995
 C       -15.0713117686      -17.6668842061       -2.9948461157
 C       -16.6928977198      -15.7675834152       -2.3871428926
 H       -12.7534125713      -16.4104161530       -3.2731362274
 H       -12.8023607878      -15.9393518951       -1.6276408722
 H       -12.3717572978      -14.7088277878       -2.7333508673
 H       -15.3643265815      -17.6041098481       -5.9887382965
 H       -13.8927593453      -16.6819896324       -5.6088833127
 H       -16.2747228734      -15.8941519377       -7.3118521235
 H       -14.7836244490      -16.4777797153       -8.0409025043
 H       -15.3299089309      -10.3645690225       -9.1173959621
 H       -13.8615806123      -10.6822880805       -8.1263735405
 H       -16.5716649532      -10.3155757100       -6.8689178317
 H       -15.8408530506       -8.8180705347       -7.4265248851
 H       -11.3225439720       -7.1917167718       -5.4691644959
 H       -12.4716520708       -6.2612855810       -4.6478403950
 H       -12.2801019451       -5.8136636218       -7.5166543994
 H       -11.0192224943       -5.0908584983       -6.5052459526
 H       -11.6868978428       -0.7017963479       -8.0348176769
 H       -10.5708616810       -1.9923971324       -8.5911868903
 H        -8.7405115208       -0.5334722109       -8.0216698285
 H        -8.9078045361       -1.2851954638       -6.3917280271
 H        -5.8263229151        2.0063835548       -4.9979624198
 H        -7.3260989839        3.1393955458       -4.9256137951
 H        -7.8700623363        2.8834999861       -7.1687875693
 H        -6.6088658197        1.5916404009       -7.2522524735
 H        -3.4869464076        4.1862095424       -9.6503333522
 H        -3.6483786264        3.1365036627      -11.1032475824
 H        -3.1101340127        1.1516864063       -9.3024218853
 H        -2.5061776515        2.3311552417       -8.3020963386
 H         1.1868724743        4.2491787965       -9.6811536331
 H         0.7565881456        3.6262796262      -11.2848575299
 H         3.0634846083        3.2408412950      -12.0645031555
 H         3.6530357775        3.7999343579      -10.3968132506
 H         1.6303680522        4.7096903475      -13.9177729440
 H         2.5283758965        3.3237164186      -14.7081439222
 H         2.4342752199        6.1343136925      -15.8778307475
 H         1.3799673090        4.9061211473      -16.3567469352
 H         5.5927230606        5.3632259370      -16.0165301707
 H         5.9640646169        6.8177720114      -17.0772780543
 H         8.1085397583        5.7814331734      -15.9440047670
 H         7.9718742076        6.1146831780      -17.7257219959
 H        12.1102798180        2.5645166022      -17.2524893413
 H        10.8966168846        1.6496515169      -16.1868063855
 H        12.4091178937        3.7731117579      -15.0190462273
 H        13.2741111632        2.1719281125      -15.1937267623
 H         9.0243690120        2.8733693798      -13.0758198559
 H         9.1346413410        3.5794385919      -11.3684093838
 H         7.4692222014        1.9688828139      -10.7234090738
 H         8.5172555857        0.7241930722      -11.5220925554
 H         7.2381521530       -2.3425141747      -14.3498277611
 H         8.4785589331       -1.2249546141      -14.1392465276
 H         7.8221502502       -1.4351211884      -15.7344585918
 H         5.7386487455       -1.6268574248      -12.2203608225
 H         6.0389488044       -0.3824648428      -11.0185206240
 H         7.3666254420       -1.0342199685      -11.8659291823
 H         4.3735665517        1.1922703366      -12.0008716383
 H         4.0504317797       -0.2144631531      -12.9755078588
 H         4.3269740542        1.4322842532      -13.7368162946
 H        14.0278079056        1.9110920749      -12.5381387136
 H        12.9988330247        0.4817943838      -12.1501224472
 H        13.2261600295        1.9217273872      -10.9932720125
 H        13.1132322666        4.2141275563      -12.7483225322
 H        12.5361337569        3.9949819612      -11.1786088940
 H        11.4350648095        4.6414132660      -12.4960264789
 H         9.2225724586        1.4893043812      -17.2494880065
 H         9.9507136918        1.7670500106      -18.8112045878
 H         8.3581880006        2.0841879135      -18.8346316205
 H        10.0524694195        5.5465991978      -18.4730693976
 H         9.4801263042        4.4895223717      -19.7289428178
 H        11.0714095605        4.1404091909      -19.1290001621
 H         3.9763748525        4.1603821402      -19.9921469044
 H         2.5686052768        5.3365175316      -19.9413574777
 H         2.6050174246        3.7419605291      -19.1356190473
 H         4.3762152292        7.3333352741      -18.5787803440
 H         3.6826145153        7.2459315498      -16.9141225972
 H         2.6703353342        7.1695596503      -18.3552588068
 H         2.9189221747        8.0717029346      -12.7682317834
 H         1.6769038030        6.9250740135      -13.2665430841
 H         3.0079648972        7.2366217525      -14.2811736867
 H         5.3654548830        7.2848924373      -12.7938964489
 H         5.5752755431        5.7470759644      -12.1945365541
 H         4.8488220151        6.9951521305      -11.4019934722
 H         0.6898814314        2.1625505191       -7.0918940200
 H        -0.8953324317        2.6530615158       -7.5005965166
 H         0.3510254065        3.5893395376       -8.1067502902
 H        -0.9319176604       -0.2478973406       -8.6087790663
 H         0.8086930663       -0.0045443424       -8.5121731033
 H         0.0164862517       -0.4535446545      -10.0224612713
 H        -7.9596447237        3.0179034012       -9.4768047947
 H        -7.5680577242        4.5604051309      -10.2055814737
 H        -8.0006911172        4.6470785587       -8.5027484373
 H        -5.7766685849        5.8575030250      -10.0144494527
 H        -4.6346715803        5.6773969949       -8.7845804256
 H        -6.2934440994        6.0131844289       -8.3669989463
 H       -10.9115427768        2.5218693146       -4.8952294080
 H        -9.4679447890        3.0909318770       -5.7664703275
 H        -9.3299964755        3.0135786659       -4.1136196475
 H        -9.6037048947        0.0574176021       -3.1345259292
 H        -9.7613207725       -0.9984003485       -4.3175934899
 H       -11.1143307643        0.2082872450       -3.9610277304
 H       -13.6369802910       -2.4079272201       -8.8343880388
 H       -14.1130671119       -3.9984133656       -8.4785973922
 H       -12.3900807094       -3.5753882015       -9.0601167584
 H       -14.7476331565       -1.7623963263       -6.8490828520
 H       -13.2082286852       -1.0591890647       -6.2921932011
 H       -14.1647590934       -2.4067165630       -5.3836043498
 H       -15.7233068980       -6.7324574674       -5.9892009302
 H       -15.5210469489       -6.5546509263       -4.3757433520
 H       -16.5545140828       -7.8537888258       -5.1057561528
 H       -12.8158168780       -9.2420791528       -3.9316599172
 H       -14.3856922462       -9.2075039222       -3.2711546061
 H       -13.7271832584       -7.6827846813       -3.2001422321
 H       -12.8455735045      -12.8802581654       -8.7328705944
 H       -13.8923053626      -12.4947813077      -10.1867481974
 H       -13.5453387565      -14.1377772208       -9.9283185156
 H       -17.1062770546      -13.7920749869       -9.1054246045
 H       -16.1417771679      -15.1725637904       -9.3717079799
 H       -15.9356545555      -13.8598504212      -10.4000174144
 H       -14.3513108296      -18.0570654446       -3.7058537613
 H       -16.0445213949      -18.1492629499       -3.0309334224
 H       -14.5978218373      -17.8596243223       -1.9272700068
 H       -17.1722895286      -14.9476563611       -2.8570055980
 H       -16.4027269362      -15.4051713144       -1.3895226003
 H       -17.4446963283      -16.5738054082       -2.2601168678
 Na      -15.7290388442      -12.7585614318       -4.8221692776
 Na        5.5272865879        2.6069712939      -15.4192072081
