232

 C       -16.6877190634       -6.0378456064       -3.6229111521
 C       -17.5151301579       -7.2055555491       -3.0992353366
 O       -16.9034345500       -8.2419202547       -2.9304376481
 C       -19.0017975562       -7.1606782466       -2.7185344838
 C       -19.0475790202       -7.6769320826       -1.2915695619
 O       -19.0215900805       -8.8719658243       -1.1179121962
 C       -19.0731968663       -6.6946084141       -0.1781990402
 C       -18.0183802573       -6.9883671745        0.9205390207
 C       -16.5939493065       -6.6570053510        0.5163871325
 O       -16.3887938089       -5.8284279837       -0.3230053616
 C       -15.3836492871       -7.4847307921        1.1936825830
 C       -15.3218111047       -8.5588553788        0.1060113054
 O       -15.9731642539       -9.6009989941        0.0975087344
 C       -14.3748394745       -8.3598241650       -1.1487325516
 C       -13.7086729986       -9.7097166244       -1.3884623257
 C       -14.1347107838      -10.5461290852       -2.6047443042
 O       -15.2969253877      -10.9650969164       -2.7665913267
 C       -13.0857846083      -10.8038338039       -3.7034058177
 C       -12.7430708887       -9.4074540470       -4.5155113537
 O       -13.0757779600       -8.3569110491       -4.0450929489
 C       -11.9909812357       -9.5988430399       -5.8947037565
 C       -12.0976347786       -8.3070264145       -6.7601652036
 C       -11.8409004416       -8.6239405919       -8.2292840916
 O       -11.6408844787       -9.7368398111       -8.6464913417
 C       -11.7200140486       -7.4472266972       -9.2693054597
 C       -11.0639593281       -5.9660245696       -8.4946142758
 O       -10.1971490762       -6.0725336600       -7.6584082719
 C       -11.5338385227       -4.5793047648       -8.9073732822
 C       -10.2813118046       -3.7413606029       -9.1789086571
 C       -10.5539117928       -2.2539051460       -9.4283351774
 O       -11.6802379984       -1.7869845533       -9.3871059049
 C        -9.2627688946       -1.4134685874       -9.8016048273
 C        -8.2361629315       -2.1298851125      -10.8943454066
 O        -8.4157390298       -3.2576419165      -11.3636362121
 C        -7.1305532598       -1.2737789223      -11.5282928261
 C        -5.9149967676       -2.0566633376      -12.0319724233
 C        -4.9184464752       -1.1047785561      -12.8983591090
 O        -5.2898271472       -0.0349780434      -13.3466230959
 C        -3.5057693969       -1.6207294784      -13.3645396413
 C        -2.4590847873       -1.9470544643      -12.3193963511
 O        -2.6677050411       -1.9826273951      -11.1519494689
 C        -1.1454482942       -2.5131283373      -12.8819327984
 C        -0.1508987601       -2.5947025184      -11.6173914028
 C         0.4171430364       -1.2158677483      -11.4098157215
 O         0.2805380278       -0.2556254167      -12.1775401813
 C         1.2136993450       -0.9423636609       -9.9762134487
 C         2.4591914353       -0.0778934389      -10.1567637632
 O         3.2415230195       -0.6011072984      -10.9739205777
 C         2.6805670642        1.1782183874       -9.3097221318
 C         4.0565743653        1.8310475534       -9.4289480230
 C         3.9698168260        3.3185355917       -9.2105486922
 O         2.8919659649        3.8135245210       -8.8984257725
 C         5.2544644635        4.3067801015       -9.5161360582
 C         5.1891845207        4.4850607052      -10.9744382578
 O         5.9981210302        3.8928771598      -11.7008328225
 C         3.9005026617        5.2690568283      -11.6089829244
 C         4.2607345562        6.6613274116      -11.9624445474
 C         4.5048786118        6.8064348442      -13.4242639560
 O         4.1805407084        5.9509645886      -14.2143371758
 C         5.0103682844        8.2802556824      -13.8737003227
 C         6.2881309194        7.8720962391      -14.8012045335
 O         6.2382811987        8.0043184751      -15.9746764414
 C         7.4235032397        7.1131081885      -14.1431244303
 C         8.5608887303        6.8059175456      -15.2035471306
 C         7.9019982040        5.7784235941      -16.1956101057
 O         6.9825400087        5.0786357623      -15.8787688256
 C         8.4539614906        5.5557440946      -17.7268212337
 C         9.5301979475        4.4413639291      -17.7169295010
 O         9.8527303784        3.8525574048      -16.6704247476
 C        10.0975656262        3.9927237600      -19.0308727638
 C        10.4895972621        2.5176883315      -19.0718393931
 C         9.3496957619        1.5790724237      -19.3667453439
 O         8.3274108707        2.0727406979      -19.7033185964
 C         9.5796292350        0.0493492293      -19.1707231203
 C         9.5619939233       -0.1782004870      -17.7056911874
 O        10.6249901294       -0.4592201371      -17.0636895294
 C         8.2369580392        0.0495456111      -16.9751737706
 C         8.4630806543        0.6572870325      -15.5965474546
 C         7.2585343018        1.0747211859      -14.7241537868
 O         7.3995705132        2.2144152125      -14.2188736579
 C         5.9368513691        0.3272868031      -14.4168387364
 C         4.8400846251        1.3256222276      -15.1400474107
 O         4.7483813592        2.5215071980      -15.0189896214
 C         3.8347721375        0.5367757319      -16.0788718333
 C         5.7826574796       -1.0650553620      -14.8781349277
 C         5.6355615444        0.4095971495      -12.9767100300
 C         8.3457808490       -0.6559221619      -19.8837202776
 C        10.8656342965       -0.3871073475      -19.8617778591
 C         7.1744565167        5.1604832458      -18.3900982088
 C         9.0082463316        6.7999496843      -18.3710641541
 C         3.8267411450        8.8111437392      -14.8319287385
 C         5.2746273613        9.2333405258      -12.6756202198
 C         4.9417667978        5.5904465089       -8.6047063841
 C         6.5774623545        3.6323008891       -8.9806845157
 C         0.0932756359       -0.3154781548       -9.1015069601
 C         1.7648867956       -2.3111442021       -9.3408369548
 C        -3.6320845625       -2.8613140006      -14.2925343273
 C        -2.8838749686       -0.4949699669      -14.2606955664
 C        -9.6185338477       -0.0527270236      -10.2735206182
 C        -8.4269930541       -1.3204265171       -8.4880317474
 C       -10.6667035584       -7.7349296661      -10.3925817815
 C       -13.1171723109       -7.0746314907       -9.7610018164
 C       -11.6892294615      -11.2908742820       -3.1484558550
 C       -13.7245701541      -11.8258388578       -4.6284564461
 C       -14.1549749818       -6.6080078147        1.3361060832
 C       -15.7950541219       -8.0121112999        2.6376941195
 C       -19.5535688145       -5.7494403572       -2.9421562638
 C       -19.8519427630       -8.0716618178       -3.6040226127
 H       -16.3006121626       -5.4487132306       -2.7198277545
 H       -17.3068435394       -5.4847170688       -4.2884643564
 H       -15.7701078273       -6.3405036643       -4.1031350256
 H       -20.1061413442       -6.6361625396        0.2340896805
 H       -18.8694599330       -5.6725020383       -0.5218774091
 H       -18.1429235120       -8.0716981005        1.1618533803
 H       -18.3090523952       -6.4529254755        1.8550127308
 H       -13.5394287164       -7.6657435763       -0.9710153395
 H       -14.8095582570       -8.0168500639       -2.0799298195
 H       -13.7485953369      -10.3337923105       -0.4620779791
 H       -12.5996522829       -9.4734205975       -1.6017325282
 H       -12.1392387907      -10.4599130258       -6.6043469017
 H       -10.9387631280       -9.6581671118       -5.4797492886
 H       -11.4747575459       -7.4612144988       -6.3974346104
 H       -13.0700141741       -7.8647241920       -6.5988667928
 H       -12.1518925250       -4.0845732037       -8.1660405404
 H       -12.2657546630       -4.5765566081       -9.7252624181
 H        -9.6101839564       -4.0618547609       -9.9775808229
 H        -9.6307576166       -4.0084038490       -8.3040588372
 H        -6.8294956026       -0.5860879173      -10.7672435227
 H        -7.4388991414       -0.6580129894      -12.4510812691
 H        -6.2064146044       -2.8371180707      -12.7135649312
 H        -5.2496913321       -2.5881509300      -11.3572876498
 H        -0.5292959687       -2.0927180881      -13.6610376162
 H        -1.2501968723       -3.5563835790      -13.2051124668
 H         0.6892142952       -3.3798767401      -11.7177866375
 H        -0.7028508677       -2.7828792813      -10.7049168080
 H         2.4272236732        0.9414904382       -8.3515604462
 H         1.9745603623        1.9338848418       -9.7009595635
 H         4.5691662272        1.7085272947      -10.4236634201
 H         4.8777659190        1.4230038097       -8.8383709221
 H         3.1631398277        5.1383526626      -10.9074397728
 H         3.5396110133        4.7355930515      -12.5007174699
 H         5.0781978666        6.9573160948      -11.2865363552
 H         3.4490277424        7.2568142140      -11.4761458610
 H         7.0173392430        6.2064677471      -13.5978953742
 H         7.8252858331        7.8178976059      -13.4355353001
 H         9.3712249047        6.3048938105      -14.6926782280
 H         8.8129429095        7.7478378738      -15.6488552147
 H        11.0092127983        4.6651679711      -19.1696651429
 H         9.3518642237        4.1012880766      -19.8059249576
 H        10.9014790849        2.1358304338      -18.1362293397
 H        11.3034707123        2.2615569145      -19.8448768529
 H         7.7069606785       -0.9060624040      -16.7880894158
 H         7.5714857559        0.7134576358      -17.6135930006
 H         9.0480724620        1.5396180849      -15.7248929417
 H         8.9955998630       -0.0052689307      -14.9479742476
 H         4.4226501949       -0.1257069216      -16.5719017384
 H         3.4473433620        1.3428773438      -16.8050161429
 H         3.0058571337        0.0188602045      -15.5809883313
 H         4.8271675007       -1.5199510398      -14.6335243462
 H         6.5132495492       -1.5946652462      -14.2984038243
 H         5.7174546418       -1.2332532358      -15.9525492643
 H         4.8694979927       -0.1996494437      -12.5506372032
 H         5.4569908503        1.4870408867      -12.6059307148
 H         6.4412576936       -0.0948526585      -12.3947826136
 H         8.3709089765       -1.7486860150      -19.7873478192
 H         8.2555654301       -0.2500797515      -20.8786470063
 H         7.3539627057       -0.3940445652      -19.4991247698
 H        11.0046972613        0.0070115143      -20.8714711111
 H        10.9175287026       -1.4938533576      -20.0227146510
 H        11.7242763510       -0.1309915274      -19.2115950512
 H         6.3654465173        5.8030144957      -18.1697741809
 H         6.8122468181        4.1352015438      -18.0858612415
 H         7.2749621476        5.0441423202      -19.5053767090
 H         9.4528004035        7.5647778355      -17.6518762226
 H         8.1653761625        7.4230454909      -18.6841352706
 H         9.7779552162        6.6945944261      -19.1756026034
 H         3.9980997034        9.8479398086      -15.1572078420
 H         2.8276095624        8.6811638120      -14.4436904831
 H         4.0195711540        8.3017415406      -15.8027020623
 H         6.0200973920        9.9852163906      -13.0744914513
 H         5.7994678202        8.6667769405      -11.8754534529
 H         4.3782234978        9.7026625015      -12.2524210462
 H         5.2810397088        5.2662857637       -7.6298342355
 H         3.8559592178        5.6923291285       -8.8137078318
 H         5.5905308600        6.3875553102       -9.0353490573
 H         7.4373801936        4.1801628782       -9.2911617928
 H         6.7177461195        2.6423067571       -9.5161169219
 H         6.6088360811        3.5813094454       -7.8810932922
 H         0.1058552674        0.7192103738       -9.2033709519
 H         0.3002828689       -0.5465177208       -8.0808886503
 H        -0.8770577741       -0.7008040283       -9.2221187826
 H         0.8168028497       -2.9068189431       -9.1964337489
 H         2.3764800210       -2.1230874273       -8.4442894066
 H         2.3157636126       -2.9030953104      -10.1471799591
 H        -3.9927471282       -3.7381209704      -13.6965324087
 H        -2.7364591112       -3.1754605878      -14.7407371287
 H        -4.4638658191       -2.7764286187      -15.0296884619
 H        -1.8369070329       -0.7582297241      -14.3794519435
 H        -2.9887617353        0.4429401812      -13.8309714781
 H        -3.3553925882       -0.4548820828      -15.2154989155
 H       -10.1923829793        0.4178730034       -9.4171405642
 H       -10.0779419136       -0.0255673472      -11.2200620651
 H        -8.6932873580        0.5968763005      -10.2943113734
 H        -8.7415537201       -0.6729839499       -7.7038330378
 H        -7.4085487059       -0.9027050588       -8.6914066319
 H        -8.2166901950       -2.3255928179       -8.0617636067
 H       -10.3265617203       -8.7495529560      -10.2540713916
 H        -9.8322303524       -7.1066818923      -10.2190045582
 H       -11.0671842141       -7.4944697867      -11.3668002050
 H       -13.5326260872       -7.8414128280      -10.4296542923
 H       -13.0764096721       -6.3291558766      -10.5353183808
 H       -13.8263932831       -6.8678840080       -8.9939823851
 H       -11.3285042427      -10.5734626637       -2.4261800502
 H       -11.0268710105      -11.4289154718       -4.0272180389
 H       -11.8711877205      -12.3045350423       -2.6684414995
 H       -14.5990433597      -11.4502829156       -5.0506629001
 H       -13.9755208765      -12.7585782810       -4.1760809067
 H       -12.9681463517      -12.0648548383       -5.3970997761
 H       -14.1636905251       -5.9237953102        0.4362259579
 H       -13.3017720108       -7.2640501732        1.4017499072
 H       -14.2333519088       -6.1239022964        2.3006810967
 H       -16.4217210865       -8.8885845912        2.6336635245
 H       -16.4713108852       -7.3471781102        3.2081983139
 H       -14.9752117283       -8.1616221094        3.2361100378
 H       -18.9523928908       -4.9431580718       -2.5267046588
 H       -20.5430530947       -5.6012039490       -2.6206810307
 H       -19.6236225530       -5.6231619015       -4.0034147879
 H       -20.8667672108       -8.0112691701       -3.2697174973
 H       -19.4997220057       -9.1407637168       -3.6243964624
 H       -19.8227967479       -7.7861353353       -4.6489561641
 Na      -17.2399196371      -10.1278838676       -1.7753742619
 Na        5.9936492809        4.1743880071      -13.9502099692
