232

 C         5.5385212871       -1.1338168738      -18.2170478203
 C         5.8797756627       -2.5276516463      -17.5023093298
 O         5.4788071162       -2.8748500475      -16.4497596102
 C         6.6196342583       -3.5060320629      -18.5801474222
 C         7.7869130662       -4.2413506591      -17.7448715749
 O         7.4740444095       -5.0941156989      -16.9073341459
 C         9.2528294401       -3.7576469398      -17.9996645551
 C        10.3395790762       -4.5231984442      -17.2590948331
 C        10.5575304850       -3.7520786022      -15.9140608819
 O         9.6108945660       -3.1496408326      -15.3968770082
 C        11.9633227590       -3.5904813724      -15.1991506010
 C        11.7943745238       -3.3063140853      -13.6384261747
 O        12.2588861426       -2.2013018918      -13.2406174516
 C        11.0361102112       -4.3241159989      -12.7423170238
 C        10.1843506688       -3.6421748593      -11.6803935476
 C         8.7761246349       -3.2722846422      -12.2737132788
 O         8.2145306736       -4.0582800710      -12.9740583552
 C         8.1112585466       -1.7445282923      -11.9089884980
 C         6.8142736095       -1.8965104767      -12.7559769746
 O         6.8094285373       -1.7438547893      -13.9629863640
 C         5.5365990530       -2.2437028649      -12.0142941405
 C         4.3027369985       -2.1632292323      -12.8956514119
 C         3.9253144219       -3.6147042995      -13.3033941678
 O         4.5067671592       -4.2581250101      -14.0996212597
 C         2.5996816180       -4.1899438151      -12.6301320134
 C         1.3206771824       -3.3307665095      -13.0439704483
 O         1.3077114513       -2.6755233381      -14.0452951354
 C         0.1763440235       -3.2372983878      -11.8833213569
 C        -0.9539015327       -2.2520229543      -12.1879454918
 C        -2.3528938266       -2.7838756091      -11.8630697740
 O        -2.3985864777       -3.7471193785      -11.1358444817
 C        -3.6869713279       -2.2414716318      -12.5910106737
 C        -4.9855438024       -2.5485094288      -11.7513266832
 O        -5.2901966250       -1.6830115340      -10.9309444153
 C        -5.7963522381       -3.7765670148      -12.0925821285
 C        -5.3700557559       -4.9669983756      -11.2237920607
 C        -6.0894765073       -4.9206096855       -9.8378042324
 O        -7.0985462428       -4.2933482304       -9.5967373904
 C        -5.1994305279       -5.5563197609       -8.6187614321
 C        -4.7683629838       -4.2628675811       -7.7594344265
 O        -3.7194964754       -3.7009280159       -7.9539739079
 C        -5.8113832812       -3.5818596774       -6.7579448325
 C        -5.2376599978       -2.3543636906       -6.0265494520
 C        -6.1502423298       -1.6806734619       -5.0057360775
 O        -7.1980780540       -2.1944328308       -4.7801232664
 C        -5.7343680573       -0.3286495394       -4.2946004927
 C        -6.0435649624        0.8755071206       -5.2818530334
 O        -5.1632249198        1.5695269815       -5.7389597534
 C        -7.4450807124        1.2014404693       -5.7391188994
 C        -7.3814760928        2.2306349128       -6.9529730961
 C        -7.2312291954        1.4963208076       -8.3033391890
 O        -7.0106692238        0.2881310400       -8.2732891826
 C        -7.1448191758        2.2481003813       -9.7323309820
 C        -7.9922399106        1.5306877714      -10.8369375405
 O        -7.7691835097        0.3641900280      -11.0604803404
 C        -9.0106398262        2.3954295114      -11.5609966277
 C        -9.4913054795        1.8975872236      -12.8911619020
 C       -10.6642488858        0.9382918817      -12.7516832897
 O       -11.7463053755        1.1902951646      -12.3161684660
 C       -10.5529769768       -0.5549736376      -13.1954084151
 C       -10.3568547584       -1.5056015298      -11.7867042806
 O        -9.4063035236       -2.1843326265      -11.6524965731
 C       -11.3790288521       -1.4693603897      -10.7243360059
 C       -11.2798946152       -2.7379099875       -9.8172854914
 C       -10.5518778977       -2.4587618954       -8.5827155185
 O        -9.4287084387       -1.9661737445       -8.4948146438
 C       -11.1947705815       -2.6946302750       -7.1594350773
 C       -12.7840123558       -2.5707219461       -7.1172130869
 O       -13.5067413450       -2.6978996583       -8.0714209066
 C       -13.3930106832       -2.5369451961       -5.6767180820
 C       -14.5961884305       -1.5828436018       -5.5100737507
 C       -14.1721406072       -0.1368794848       -5.7036610746
 O       -13.2651758108        0.1151677758       -6.4579248919
 C       -14.9731148313        1.0944653314       -4.8866235854
 C       -14.0781173015        1.4339835993       -3.6251393280
 O       -14.5224819159        1.1880401843       -2.5208421469
 C       -12.6096245963        1.7846664597       -3.9092659817
 C       -11.9897885603        2.5260734975       -2.7192335738
 C       -10.5487474549        2.8778858174       -3.0029630784
 O       -10.0134245209        2.6217407183       -4.0525477897
 C        -9.6514362812        3.3130095528       -1.7662710975
 C       -10.5754818911        4.1835463243       -0.7995168978
 O       -11.3290813502        3.8029778104        0.0038630980
 C       -10.5923031861        5.7537626724       -1.0970708092
 C        -9.2434013699        1.9878006185       -1.2118902992
 C        -8.3761489514        4.0627173888       -2.2601678938
 C       -15.1156950457        2.3243690461       -5.8735845118
 C       -16.4302276848        0.7310021692       -4.5061535827
 C       -10.6861583670       -4.0133457078       -6.6234958469
 C       -10.6090148079       -1.4408800295       -6.3346101990
 C       -11.9268396837       -1.0279463536      -13.8208422516
 C        -9.4482966502       -0.9030771531      -14.2124750594
 C        -7.4418892693        3.7699605226       -9.5384525314
 C        -5.6895159948        2.2257685492      -10.3144203286
 C        -6.5148401001       -0.3224097000       -2.9586796401
 C        -4.1999313452       -0.3448171399       -4.0894411076
 C        -6.0955138636       -6.4736764808       -7.7162561721
 C        -4.0107603020       -6.3274171052       -8.9873066762
 C        -3.6958995178       -0.7349800903      -12.8774882149
 C        -3.7507999322       -3.0169928037      -13.9349591983
 C         2.5280133918       -5.6982989801      -13.2253330277
 C         2.8945868089       -4.2483515152      -11.0894887660
 C         7.9205926475       -1.6534444464      -10.3745759586
 C         9.0065437929       -0.6259039182      -12.5167575285
 C        12.9736489472       -4.8613665149      -15.3419034132
 C        12.5788966393       -2.3447988618      -15.8548289788
 C         5.6013454777       -4.6551798741      -19.0145218977
 C         7.2584338593       -2.8092438824      -19.9016645084
 H         5.0758516239       -1.2676829538      -19.1525906516
 H         6.5494256323       -0.6057153011      -18.2028753606
 H         4.8324701585       -0.6512461686      -17.5932191907
 H         9.3033427128       -2.6783997878      -17.9445161692
 H         9.4343534536       -3.9324329705      -19.0694559377
 H        11.2512924046       -4.6006493099      -17.8408333604
 H         9.9939482881       -5.4567665947      -16.9131186412
 H        11.7430320378       -4.9931921098      -12.2402185878
 H        10.4483718122       -4.8975876767      -13.4408773516
 H        10.7310086284       -2.7792991847      -11.3046083344
 H         9.9401910194       -4.2417314622      -10.7876694711
 H         5.3863945277       -1.4352176229      -11.2898439025
 H         5.5411783157       -3.1965490593      -11.3881457191
 H         4.3223664953       -1.5172819719      -13.7470721549
 H         3.4357264947       -1.6955396262      -12.3770766814
 H         0.6474920390       -3.1717050307      -10.8991214868
 H        -0.1901185384       -4.2383726504      -11.7852672472
 H        -0.9069893115       -1.8996697056      -13.2550772692
 H        -0.9174761365       -1.3075249198      -11.6569568328
 H        -5.7715274550       -4.0347549581      -13.0980613494
 H        -6.8173021745       -3.4677793819      -11.8789489076
 H        -4.3020936785       -4.9509484339      -11.0720733670
 H        -5.5757907901       -5.9288764408      -11.6869390180
 H        -6.0786033398       -4.2502781112       -5.8723676647
 H        -6.7759525343       -3.3823646331       -7.2514472596
 H        -4.8164942720       -1.6781897766       -6.7111953987
 H        -4.4105123461       -2.7343752416       -5.3549981389
 H        -8.0272390464        1.6553449708       -4.9853372450
 H        -7.9004783748        0.3080408928       -6.1702859183
 H        -6.4202573580        2.8169566838       -6.7946770568
 H        -8.2395796354        2.8450375802       -6.9220516216
 H        -8.6253998925        3.4351889858      -11.7950995262
 H        -9.8762393766        2.5639191079      -10.8806342843
 H        -8.7098603596        1.4307862463      -13.4727328827
 H        -9.9799954023        2.7327003498      -13.3767344410
 H       -12.4363911165       -1.2597696416      -11.0073126045
 H       -11.1415948966       -0.5559462594      -10.0658482412
 H       -10.6973420115       -3.4641598873      -10.3463263597
 H       -12.3401460575       -3.0201742715       -9.6302313612
 H       -12.6501145868       -2.4517721287       -4.8620058710
 H       -13.8894186269       -3.4636621178       -5.4209716250
 H       -15.0040226358       -1.7252002026       -4.5642665396
 H       -15.3568770723       -1.7950186965       -6.3070727491
 H       -12.6229296648        2.5096103556       -4.8016996091
 H       -12.0955336889        0.8637910049       -4.2788404648
 H       -12.0183543579        1.9701622991       -1.7790411898
 H       -12.6288184954        3.4438766670       -2.5677941554
 H       -11.6585423898        6.0711972974       -0.9270589260
 H       -10.3830366655        5.7772864704       -2.2066434107
 H        -9.8462944371        6.3147492947       -0.5232310943
 H        -8.7505656424        1.4329745610       -2.0671959435
 H       -10.1382570187        1.4090190946       -0.8442991663
 H        -8.5556003027        2.0819653682       -0.3607313564
 H        -7.8583552889        4.5106516409       -1.3914706943
 H        -8.6435304532        4.8517208423       -2.9073850550
 H        -7.6920247808        3.3193685552       -2.6643173992
 H       -15.5036083005        2.0522043189       -6.9124738099
 H       -14.1970239426        2.8037544291       -6.0354105593
 H       -15.8068520574        3.0180940803       -5.4439568394
 H       -16.6634017217       -0.3653915516       -4.3478884926
 H       -17.1889110612        0.9821652191       -5.3673758836
 H       -16.7676914704        1.1836124993       -3.5549041507
 H       -10.7742760805       -4.7439890900       -7.4277536371
 H       -11.1148738099       -4.4108197403       -5.7759814489
 H        -9.6372751194       -3.8400730594       -6.4948023592
 H       -10.9522517731       -1.3734651935       -5.2916823789
 H       -10.8822791986       -0.5645234203       -6.9078235867
 H        -9.4574904497       -1.3271546633       -6.3778817430
 H       -11.9899175125       -0.9984064234      -14.8799451532
 H       -12.8076464312       -0.5157554250      -13.4120534542
 H       -11.9939613044       -2.1091987603      -13.6143791848
 H        -8.5320247248       -0.8884824206      -13.6918922641
 H        -9.2431834790       -0.2454926741      -15.1043425504
 H        -9.5688569791       -1.8311460916      -14.6533096229
 H        -7.1194729963        4.2787543784      -10.4348781008
 H        -6.8405389347        4.1721621157       -8.8495702762
 H        -8.4961284450        3.8488814904       -9.3760475498
 H        -5.1924252461        1.2691916693      -10.4303686702
 H        -4.8590968401        2.8461400654       -9.8556222886
 H        -5.7627664357        2.5053004128      -11.4225222056
 H        -7.4944561619       -0.6360871219       -3.0955612323
 H        -6.4033999432        0.6138440204       -2.3809113087
 H        -5.9997054978       -1.2159363367       -2.3469512392
 H        -3.9298251039        0.7060889994       -3.8574902090
 H        -3.6088789449       -0.6960340887       -4.8946908653
 H        -3.9073955768       -0.9269113392       -3.1702447171
 H        -5.8016958111       -6.3823221051       -6.6546088978
 H        -5.8958356614       -7.5238372023       -8.1005751247
 H        -7.1679867953       -6.3552701434       -7.6377736128
 H        -3.2389438894       -5.7126615971       -9.4399659612
 H        -4.1869115791       -7.3323409713       -9.4923708408
 H        -3.5703858981       -6.7522517971       -8.1398654167
 H        -2.8747588493       -0.2641223761      -13.3838068623
 H        -3.7135675985       -0.1529769526      -11.8898861806
 H        -4.5277150065       -0.3699744713      -13.4180346334
 H        -4.6414465987       -2.7788360855      -14.6027547593
 H        -3.7209658939       -4.0772808765      -13.5836534167
 H        -2.7661512293       -2.8326537649      -14.4077338973
 H         2.6968767433       -5.8207417398      -14.2612712029
 H         1.5930271717       -6.1675653694      -13.0922870019
 H         3.2923747697       -6.2188642775      -12.7263321448
 H         3.9707564602       -4.5382905802      -10.9811931593
 H         2.2789051075       -5.0129163598      -10.5583677937
 H         2.6791166777       -3.3476113929      -10.5090505569
 H         7.4169025806       -2.5496374032      -10.0679141221
 H         7.3911448819       -0.7149956069      -10.1617060014
 H         9.0216727008       -1.7088937173      -10.0864590504
 H        10.0405817738       -0.9977414509      -12.7364677925
 H         9.1925330331        0.1411774322      -11.8808499427
 H         8.6839788472       -0.1794015448      -13.4815223769
 H        12.7713850661       -5.6592671082      -14.6405864036
 H        13.9622329762       -4.4557961622      -14.9562996816
 H        12.9340275690       -5.2229650652      -16.3284908964
 H        12.8269477161       -2.5296401793      -16.8729912838
 H        13.5728721271       -1.9264688754      -15.3781154987
 H        12.0031231088       -1.4596726450      -15.7509965272
 H         5.0036568651       -4.2713702988      -19.7740340120
 H         4.9459707391       -4.9169344377      -18.2089306853
 H         6.2210838250       -5.4979196099      -19.3458526799
 H         8.0933557051       -2.0794829849      -19.6814231395
 H         6.4999440270       -2.1059571494      -20.3168165865
 H         7.4268977456       -3.7105608588      -20.4778802989
 Na        6.5968167221       -4.1706785627      -14.7496187431
 Na       -7.2349733740       -1.7601035315       -9.6854192262
