232

 C         5.3484033884       -1.1857787865      -18.0208816853
 C         5.7817514549       -2.5917881588      -17.5791179686
 O         5.4792232437       -2.8749785424      -16.4294524166
 C         6.6050524064       -3.5326402718      -18.5247605025
 C         7.7793540868       -4.2358850394      -17.7256611248
 O         7.5138805760       -5.1335800490      -16.8908832204
 C         9.2371004918       -3.9582483766      -18.1340718161
 C        10.2555572628       -4.5124556709      -17.1555463421
 C        10.5275163636       -3.8047395601      -15.8239291406
 O         9.6309968235       -3.2158542043      -15.2590086198
 C        11.9344385340       -3.5920585784      -15.2366415872
 C        11.7011883143       -3.2724085504      -13.6985594936
 O        12.0640448653       -2.2341567297      -13.2551880581
 C        11.0038691335       -4.2583299130      -12.7938393609
 C        10.1628425803       -3.4853415525      -11.6923989805
 C         8.7795752642       -3.1846036172      -12.3113154684
 O         8.2775275657       -4.1207463797      -12.9971036819
 C         8.2257496299       -1.8301163735      -11.9865606831
 C         6.7775501256       -1.7198001865      -12.7943562231
 O         6.9148596667       -1.5837312609      -14.0063894225
 C         5.4609791985       -2.1723469956      -12.1161854414
 C         4.2332061592       -2.1266583057      -13.0091878892
 C         3.8293007116       -3.5255216509      -13.4151024590
 O         4.4991108504       -4.1736070826      -14.1697715665
 C         2.6612753318       -4.1996669588      -12.6194817975
 C         1.3599076550       -3.3973439857      -12.8790096298
 O         1.2594845219       -2.7649145165      -13.9223730245
 C         0.1971275725       -3.2272785487      -11.8918975742
 C        -0.8556135081       -2.2337201159      -12.3492773573
 C        -2.2869954052       -2.7170867500      -11.8816648494
 O        -2.4489535682       -3.7569875470      -11.2344546133
 C        -3.5396258514       -2.1759714683      -12.5635724932
 C        -4.9378742976       -2.5219209355      -11.7623989089
 O        -5.2774076310       -1.7287487856      -10.8853755219
 C        -5.6780637105       -3.7609976201      -12.0513437759
 C        -5.3742480672       -4.9317366394      -11.2403593738
 C        -6.0227559995       -4.8800035874       -9.8066531397
 O        -7.0559926541       -4.2965203310       -9.7064823153
 C        -5.2266542689       -5.5123284388       -8.6606805411
 C        -4.9081979109       -4.1809379155       -7.8396023584
 O        -3.7873688058       -3.7522711588       -8.0850814514
 C        -5.7813556584       -3.7143462823       -6.7239722141
 C        -5.1950101652       -2.4157167195       -6.0755879076
 C        -6.1993490985       -1.7174520635       -5.0729936223
 O        -7.2445202529       -2.2011319682       -4.7252217663
 C        -5.7481250029       -0.3822545269       -4.3065629474
 C        -6.1527029848        0.8831319799       -5.2363073636
 O        -5.1918543394        1.5649204264       -5.5955782793
 C        -7.6085081009        1.1194385278       -5.7350162668
 C        -7.5259332639        2.1618281565       -6.9317929781
 C        -7.1501776996        1.4509213887       -8.2717864790
 O        -7.0589345840        0.2378011600       -8.2882634042
 C        -7.1492229731        2.3238079785       -9.6304859015
 C        -8.0285961726        1.5406094905      -10.7612538747
 O        -7.7354386597        0.3998652540      -11.0477495460
 C        -8.9807241675        2.4532931238      -11.5528400399
 C        -9.5545046515        1.8638967379      -12.9432406250
 C       -10.7052145260        0.8203352483      -12.7895222118
 O       -11.7783915622        1.2192570871      -12.2996558670
 C       -10.5324634455       -0.7596775556      -13.1318975617
 C       -10.3251051509       -1.5160790305      -11.9118311812
 O        -9.3010246140       -2.2513902059      -11.9393575263
 C       -11.2856159799       -1.4468099181      -10.6272091395
 C       -11.2964547831       -2.7847077182       -9.7353930172
 C       -10.4850074477       -2.4055504892       -8.4696548281
 O        -9.3184213360       -2.0467936855       -8.5407894700
 C       -11.1531042854       -2.5944328424       -6.9805813827
 C       -12.8095050294       -2.6378716842       -6.9804602143
 O       -13.4789637367       -2.6755878043       -7.9856478640
 C       -13.4201268963       -2.6007653243       -5.6059890425
 C       -14.6154718148       -1.6468263057       -5.3379934800
 C       -14.2358061773       -0.1244212791       -5.7006896850
 O       -13.3285576921        0.2009592992       -6.4706228483
 C       -14.9529822955        0.9593113884       -4.9400273883
 C       -14.0893968617        1.2930326811       -3.6485390160
 O       -14.5316880614        1.3584641507       -2.5495292887
 C       -12.5961541144        1.7640749473       -3.8890408937
 C       -11.9797655857        2.5358320553       -2.7357882372
 C       -10.5233037465        2.9016296477       -2.9565991125
 O        -9.8993458842        2.7569668737       -4.0434912580
 C        -9.6554401819        3.3120891214       -1.7255615476
 C       -10.5268996845        4.2302389546       -0.9090712592
 O       -11.2651983682        3.7093380287       -0.0892338751
 C       -10.5444643996        5.7687330823       -1.2067362658
 C        -9.2517214728        1.9660359283       -1.0954124575
 C        -8.3160074943        4.0618124580       -2.1793666802
 C       -15.0044768941        2.2865481103       -5.7747999074
 C       -16.3931515591        0.5857093443       -4.6162609180
 C       -10.6720340284       -3.9781809122       -6.4466369819
 C       -10.5626538974       -1.4451366867       -6.1608734407
 C       -11.8239103706       -1.0619630714      -13.9519146563
 C        -9.3780508976       -0.8841269813      -14.1217684333
 C        -7.4705702851        3.8315144723       -9.4732303724
 C        -5.7763048411        2.2839028304      -10.2921290908
 C        -6.4227613990       -0.2681350786       -2.9199847518
 C        -4.2082138876       -0.4450755616       -4.0234536441
 C        -6.2158989755       -6.3794773142       -7.7545602579
 C        -4.0345961082       -6.3375578442       -9.1509060660
 C        -3.3880379154       -0.6983450153      -12.8876654149
 C        -3.5509579659       -3.0983045782      -13.9847011365
 C         2.5255715212       -5.6512330710      -13.1555893956
 C         2.7765937711       -4.1811683896      -11.1044721789
 C         7.9877949248       -1.6701755805      -10.4814740587
 C         9.0464173183       -0.6176290641      -12.5161764977
 C        12.8952360178       -4.7720558782      -15.4159924981
 C        12.4266470435       -2.3149521453      -15.9124862214
 C         5.5169319320       -4.5685478968      -18.8661275560
 C         7.0960298254       -2.9017880974      -19.7662902325
 H         4.7746574491       -1.1755140874      -18.9611093770
 H         6.2941583958       -0.6000732151      -17.9537703954
 H         4.6691805176       -0.8908391992      -17.2801370629
 H         9.2385027743       -2.8795366964      -18.1688925322
 H         9.5168566537       -4.2067274770      -19.1493545271
 H        11.2376479009       -4.3938701918      -17.6128656967
 H        10.0402965084       -5.5642606730      -16.9368335728
 H        11.7851299773       -4.7827456980      -12.2381783970
 H        10.4319373749       -5.0160616015      -13.3668991988
 H        10.6804282858       -2.5321026592      -11.4785458523
 H        10.1129172910       -4.0172487102      -10.7590571256
 H         5.1941407231       -1.7327810654      -11.0919723331
 H         5.7193033347       -3.2274089776      -11.9510929119
 H         4.4197753543       -1.5014613147      -13.9609599696
 H         3.3458810030       -1.5451617676      -12.6593357013
 H         0.4598025519       -3.1204556741      -10.8299380028
 H        -0.1554232077       -4.2413098195      -11.8587369233
 H        -0.8346527024       -1.8391079696      -13.4134068199
 H        -0.7109371750       -1.2658462944      -11.7845067994
 H        -5.5657097128       -4.0762664371      -13.0842687781
 H        -6.7500011260       -3.4239505047      -11.9947728799
 H        -4.3125352257       -5.0918831770      -11.3334836686
 H        -5.8402541499       -5.8142588445      -11.6776561495
 H        -6.0313033819       -4.4477633713       -5.9528168137
 H        -6.7249644812       -3.4130631957       -7.0970384998
 H        -4.9601244789       -1.7691621299       -6.9348189391
 H        -4.3431024131       -2.5631024695       -5.4019923751
 H        -8.2074393736        1.6457654484       -5.0339980857
 H        -8.0175638910        0.1887075888       -6.1270773046
 H        -6.7125479720        2.7681579380       -6.6660238174
 H        -8.4286719555        2.7022918421       -6.9642971010
 H        -8.5687752836        3.3872847104      -11.8180433236
 H        -9.8452172109        2.7083629307      -10.8264221384
 H        -8.7362443977        1.5346202183      -13.6189255630
 H       -10.1386431453        2.6361569846      -13.3435612952
 H       -12.2974573060       -1.2914663528      -11.0123417749
 H       -11.1477067369       -0.5423749484       -9.9746078511
 H       -10.5848512938       -3.4022497190      -10.3629240439
 H       -12.3151196318       -3.1508125879       -9.6378307015
 H       -12.6524106083       -2.4477218336       -4.8837565638
 H       -13.8013536766       -3.5431382700       -5.3304136857
 H       -14.9583463786       -1.7817982408       -4.3570986215
 H       -15.3902518181       -1.8610989092       -6.0318701490
 H       -12.4133157012        2.2354554516       -4.8619846382
 H       -12.0115695326        0.8044195259       -3.9851926163
 H       -11.8347329755        1.8465841309       -1.9030282027
 H       -12.6420096633        3.3664720453       -2.3601405639
 H       -11.5435003837        6.2327889577       -1.2393050963
 H       -10.0710741882        5.8232784427       -2.1493511999
 H        -9.8514219046        6.1539108674       -0.4509563659
 H        -8.4809698567        1.4467419114       -1.7318877090
 H       -10.1277086731        1.2947766258       -0.8834384307
 H        -8.8404163090        2.1996899720       -0.1086902528
 H        -7.5485840605        3.9651444772       -1.4183183511
 H        -8.4102364572        5.0491490568       -2.5509902340
 H        -7.9677482714        3.4220696326       -2.9735610885
 H       -15.2440499633        2.1553141208       -6.7871823734
 H       -14.1083042268        2.8423259537       -5.7069298251
 H       -15.8101717815        2.8873184310       -5.2813122518
 H       -16.5612032887       -0.4428674148       -4.1532309680
 H       -17.0308566846        0.5894040915       -5.4871872836
 H       -16.8115877129        1.2774521646       -3.8504002726
 H       -10.8795867469       -4.7200251905       -7.2003928017
 H       -11.1220529194       -4.2566413133       -5.4746633762
 H        -9.6041126276       -3.9338815111       -6.2522783324
 H       -11.1746770730       -1.2836415510       -5.2038265487
 H       -10.6494527542       -0.5132709430       -6.8059831324
 H        -9.4847987745       -1.4584074815       -5.9479635959
 H       -11.6289385267       -0.8475379865      -14.9491938390
 H       -12.5944661537       -0.3666500462      -13.6456493124
 H       -12.2234802425       -2.0833811589      -13.9356512411
 H        -8.4413711506       -0.5120945319      -13.6374964228
 H        -9.4400918265       -0.3497561862      -15.0015755762
 H        -9.2495159581       -1.8866607860      -14.5260801459
 H        -7.5277478590        4.2829331304      -10.4552097522
 H        -6.7014020809        4.3740580509       -8.9195936400
 H        -8.4884055031        3.7783007965       -9.0881272451
 H        -5.5729963332        1.2426021801      -10.6463546295
 H        -4.8314387633        2.5388974728       -9.7843543381
 H        -5.7298245361        2.7607627511      -11.2651738549
 H        -7.2022387293       -1.1408238794       -2.7811706199
 H        -6.8273110198        0.8093512962       -2.6569500923
 H        -5.6195567734       -0.5293629912       -2.1413718694
 H        -4.0761948576        0.4369019095       -3.3288887982
 H        -3.4530852733       -0.4164478013       -4.8471839726
 H        -3.9282014204       -1.3552074488       -3.3876791223
 H        -5.8379818985       -6.4605731655       -6.7536226052
 H        -6.2590532857       -7.3920872986       -8.1424991351
 H        -7.2899136294       -6.0095246747       -7.5903879817
 H        -3.2334114790       -5.7273776641       -9.5757030643
 H        -4.2846971172       -7.2145582960       -9.7102078995
 H        -3.5717856970       -6.8889318334       -8.3141535065
 H        -2.5839971454       -0.3635411598      -13.4977392873
 H        -3.2904497400       -0.0128374911      -12.0524444221
 H        -4.2926635149       -0.3633745964      -13.4371232646
 H        -4.3436422943       -2.8017236546      -14.7251568286
 H        -3.6372315132       -4.1223061033      -13.6120932406
 H        -2.4592772056       -3.1436473168      -14.3823435232
 H         2.5719143064       -5.6807666173      -14.2439393633
 H         1.5759555711       -6.0958200429      -12.9781545271
 H         3.3109196706       -6.2526098667      -12.8058995740
 H         3.5890584146       -4.7921109025      -10.7401808019
 H         1.8519637900       -4.5953530609      -10.7094555294
 H         2.8638403251       -3.2066373928      -10.6563154873
 H         7.2591812588       -2.5042143627      -10.2148916202
 H         7.4496472554       -0.7723764547      -10.5869827834
 H         8.9329647784       -1.6063135616       -9.9118502053
 H        10.1452073287       -0.8320666779      -12.6240093910
 H         9.0811471795        0.1374359691      -11.7224514913
 H         8.7819677872       -0.1442078555      -13.4224850546
 H        12.4322945206       -5.6812895300      -15.0472604627
 H        13.7299687788       -4.5098185295      -14.7341475269
 H        13.1345125851       -4.9395673442      -16.4933854377
 H        12.4957211784       -2.4173642645      -17.0662905033
 H        13.3802475178       -1.9454337625      -15.6944442532
 H        11.8064039830       -1.4972616306      -15.5799466734
 H         4.7742979977       -4.1002497061      -19.4613597948
 H         5.0671425519       -4.8172746611      -17.9527991602
 H         5.9009484497       -5.3689093957      -19.3285503776
 H         8.0311402913       -2.2940023887      -19.6039972764
 H         6.4114057504       -2.0438619120      -19.8597552544
 H         7.0402365028       -3.6915086188      -20.5332274301
 Na        6.7990191244       -4.1511427748      -14.8846712988
 Na       -7.3928592035       -1.6844993601       -9.8118042843
