232

 C         5.1346692688       -1.3354831982      -17.9012562335
 C         5.7432359191       -2.6628518787      -17.3993555681
 O         5.6083103253       -2.8181359399      -16.2317127186
 C         6.5476360205       -3.5552406118      -18.3681514054
 C         7.6851590580       -4.3383905925      -17.7615514227
 O         7.4507898389       -5.0874623245      -16.8658072804
 C         9.1918423833       -4.0844029658      -18.1370273579
 C        10.1492002602       -4.6560711803      -17.1099878307
 C        10.2824332214       -3.8120290623      -15.8393044042
 O         9.2922300790       -3.4568748531      -15.2336171013
 C        11.6899393883       -3.4843806179      -15.2608173923
 C        11.6726983496       -3.1314274280      -13.7402243588
 O        11.9098928064       -1.9355572592      -13.3826887094
 C        11.1866607739       -4.2223259308      -12.7432936079
 C        10.1725915678       -3.6259100923      -11.7265567564
 C         8.8535296328       -3.2721764484      -12.3200426587
 O         8.1459555037       -4.0213074102      -12.9114026346
 C         8.2716887772       -1.7919962617      -12.1388859703
 C         6.8460443719       -1.5852350212      -12.9850772601
 O         6.8120380792       -1.3066665933      -14.1493027344
 C         5.5249867040       -1.9424005429      -12.2127760737
 C         4.2571755892       -2.1275503099      -13.1362184051
 C         3.8889159673       -3.5817896344      -13.3468306483
 O         4.4636564524       -4.3177644926      -14.1105350411
 C         2.6398780425       -4.0876264145      -12.6096401304
 C         1.3986134399       -3.2889036276      -12.9154114963
 O         1.1980613007       -2.8286795385      -13.9799696877
 C         0.2872856192       -3.2463896500      -11.9133866482
 C        -0.8589689286       -2.3200279417      -12.2470608612
 C        -2.2363330454       -2.9689167286      -11.9123367826
 O        -2.4071773189       -3.8778234478      -11.1278284677
 C        -3.4522735514       -2.2493885288      -12.7940765961
 C        -4.7557493262       -2.4111919898      -11.9369260265
 O        -4.9908515521       -1.6594845866      -11.0165719478
 C        -5.7194132419       -3.5425720316      -12.2528335372
 C        -5.4185897115       -4.7730999034      -11.3192168264
 C        -6.0347792652       -4.7211257660       -9.9741473534
 O        -7.0647274720       -4.0475310074       -9.7106637117
 C        -5.3654446709       -5.4411215185       -8.7051273012
 C        -4.8602109707       -4.1913182789       -7.8817360281
 O        -3.8240895243       -3.6303721960       -8.1411738315
 C        -5.7518400357       -3.6837732144       -6.7397516486
 C        -5.2659313784       -2.3225356961       -6.1035526469
 C        -6.2853567379       -1.7720224048       -5.0926576154
 O        -7.3427988495       -2.3093204405       -4.8397276396
 C        -5.7725961648       -0.4555264994       -4.3864960981
 C        -6.0425171823        0.7884200163       -5.2690231687
 O        -5.1915549191        1.6327399392       -5.3778786381
 C        -7.5346541442        0.8749883956       -5.7164196533
 C        -7.7396966131        1.8320639949       -6.9813242587
 C        -7.3432906062        1.2618644171       -8.3186447232
 O        -7.0174190060        0.0995964578       -8.4979105902
 C        -7.2224619395        2.2273491739       -9.5240931721
 C        -8.0749890849        1.7153088716      -10.7632660540
 O        -8.0882186851        0.5319724155      -11.0386786397
 C        -9.1347153703        2.5745859592      -11.5311172359
 C        -9.4857255758        1.8726149321      -12.8030531970
 C       -10.6729991484        0.7536942556      -12.6639112088
 O       -11.6995987293        1.0513069990      -12.2019758879
 C       -10.3763728225       -0.8748562713      -13.1739395923
 C       -10.1617419738       -1.6618175408      -11.8971198651
 O        -9.1577179839       -2.3266038292      -11.9740045838
 C       -11.1727839293       -1.5692096467      -10.7777426287
 C       -11.0947893665       -2.6903622010       -9.7046947941
 C       -10.4097932060       -2.3579986073       -8.2516295279
 O        -9.2086044870       -2.1534039505       -8.2503064598
 C       -11.1254283864       -2.4888569776       -6.7747963577
 C       -12.6650139638       -2.5064721827       -6.8423753216
 O       -13.3522000605       -2.6305848628       -7.8377894480
 C       -13.3325443833       -2.5924305114       -5.4082380730
 C       -14.4687268573       -1.6422174885       -5.2645528721
 C       -14.0704556946       -0.2339521235       -5.6331750936
 O       -13.3096729198       -0.0206253864       -6.5448190122
 C       -14.8566628230        0.9503358844       -4.9435119854
 C       -14.0195007151        1.3828148625       -3.6330346339
 O       -14.6016595574        1.5312340318       -2.5729157923
 C       -12.5265679323        1.4602387994       -3.8173400819
 C       -11.8881624248        2.4312261138       -2.8344886442
 C       -10.3552659669        2.8436881290       -3.1281568373
 O        -9.8902749475        2.9300889981       -4.2130192007
 C        -9.5554553303        3.2226412219       -1.7298726016
 C       -10.5304307923        4.2438355968       -0.9428855785
 O       -11.2175064078        3.7538017229       -0.1122024176
 C       -10.5268264211        5.7614567232       -1.2187277265
 C        -9.2747033612        2.1048854827       -0.6539282577
 C        -8.1702339009        3.8071314184       -2.1726492859
 C       -15.0263475150        2.2260478709       -5.8663090713
 C       -16.2536262434        0.5245884978       -4.4629242772
 C       -10.6668521363       -3.8955884730       -6.3007445388
 C       -10.4827390009       -1.3539687073       -5.9211884877
 C       -11.6752251484       -1.2138182407      -13.9318223464
 C        -9.2130334170       -0.9070676129      -14.1858023254
 C        -7.6312352591        3.7018600710       -9.1303741756
 C        -5.7325774702        2.2159478881       -9.9142586299
 C        -6.6299785114       -0.2684354315       -3.0196287993
 C        -4.2045580595       -0.4764737248       -4.1064183712
 C        -6.4687503557       -6.2970275023       -8.0732033059
 C        -4.1437845793       -6.3895503707       -8.9769934494
 C        -3.2013259758       -0.7340540668      -12.9334530012
 C        -3.4102541052       -2.8750720107      -14.1867192528
 C         2.2567090242       -5.5219212198      -12.9982117811
 C         3.0878856692       -4.1947736832      -11.0877921034
 C         7.9152452810       -1.7475652115      -10.6222365708
 C         9.1611690124       -0.6388383552      -12.6030363795
 C        12.6297277348       -4.6829361132      -15.5306117913
 C        12.2826563495       -2.2582624814      -16.0631393364
 C         5.4284273931       -4.6339494973      -18.5883063131
 C         6.8466707499       -2.8793010619      -19.7856461464
 H         4.3891202345       -1.4670676631      -18.6454791345
 H         6.0421131941       -0.7689141305      -18.1397502638
 H         4.6143902695       -0.8906501400      -17.0316664533
 H         9.3414871702       -3.1136062036      -18.6672802962
 H         9.3782744676       -4.7841517138      -18.9848129732
 H        11.1697715327       -4.7877862563      -17.5425806712
 H         9.6510574345       -5.6228876298      -16.8695190735
 H        11.9664080724       -4.6695602082      -12.0981672276
 H        10.6562764640       -5.0143823722      -13.2750531572
 H        10.5311131673       -2.7136082386      -11.2597084623
 H        10.0841206064       -4.4330135142      -10.9445436028
 H         5.2086938975       -1.1290008289      -11.6255425652
 H         5.7094457718       -2.8478303993      -11.6002702044
 H         4.4333098987       -1.6276692416      -14.0447396017
 H         3.3966629499       -1.5817740553      -12.7654056371
 H         0.8019456316       -2.9637710661      -10.9994521664
 H         0.0155724318       -4.2931048144      -11.6341411894
 H        -0.9271893780       -2.1353720105      -13.2976251155
 H        -0.7075234378       -1.3063198473      -11.9233954308
 H        -5.5475308842       -3.8549679507      -13.3112657589
 H        -6.7823342448       -3.2310492272      -12.2065996705
 H        -4.3213110353       -4.9834220156      -11.2947613053
 H        -5.8919037887       -5.7324819064      -11.6724325867
 H        -5.7371733966       -4.3662631896       -5.8874451653
 H        -6.8446654299       -3.6049465672       -6.9192149319
 H        -5.3500185550       -1.5627456563       -6.8932703521
 H        -4.2541754024       -2.4038137752       -5.6590790798
 H        -8.1542672919        1.4836401526       -4.9994089672
 H        -7.9161405650       -0.0955687702       -6.0870056924
 H        -7.0361997742        2.7236090492       -6.8153926667
 H        -8.8173185005        2.1316242433       -6.9365280135
 H        -8.7247192228        3.5579436623      -11.8822177425
 H        -9.9365956859        2.8166339245      -10.9296717844
 H        -8.5875510046        1.3369686248      -13.0466934522
 H        -9.7967701645        2.5794866514      -13.6278982592
 H       -12.1602806868       -1.2786326888      -11.1008437799
 H       -10.8895079556       -0.6822826490      -10.2740285646
 H       -10.5065578572       -3.4114066437      -10.2416042305
 H       -12.1667666723       -2.9145932132       -9.5192596314
 H       -12.6716553440       -2.4311425662       -4.5318441174
 H       -13.7061388616       -3.6492766943       -5.3184454772
 H       -14.8924243460       -1.5624893317       -4.2188829865
 H       -15.3481487988       -1.8546468364       -5.9514257868
 H       -12.2396837299        1.4934175741       -4.8731519064
 H       -12.0988384958        0.4933069738       -3.5985817614
 H       -11.8764082441        1.9416894233       -1.8581080443
 H       -12.4696481297        3.3086955845       -2.6932499607
 H       -11.5150426003        5.9881327587       -0.8761212947
 H       -10.4740980965        6.0880817738       -2.2565980630
 H        -9.7887122245        6.1633460312       -0.5791511681
 H        -8.6269447426        1.3714854430       -1.0468125522
 H       -10.2276603050        1.6845960550       -0.4752242383
 H        -8.9480137302        2.4815796297        0.3037658417
 H        -7.3706778631        3.2460431757       -1.6555057908
 H        -8.2242097665        4.8871655285       -1.9106183028
 H        -7.9861646694        3.8542213783       -3.2726238539
 H       -15.7041996576        1.9150610978       -6.7393768543
 H       -14.0592482455        2.5963455481       -6.2512422935
 H       -15.5039531556        3.0000370937       -5.3277637033
 H       -16.2176065233        0.2136863351       -3.4667532541
 H       -16.7124544039       -0.2545537914       -5.0777916191
 H       -16.9035179792        1.3465375196       -4.5536972105
 H       -11.3575793522       -4.6790948389       -6.7450881789
 H       -10.8023694531       -3.8317999466       -5.2122719286
 H        -9.5773534594       -4.1248180169       -6.3797270240
 H       -10.9110976974       -1.3661634118       -4.9706934885
 H       -10.7149931983       -0.4158982167       -6.3283360939
 H        -9.3879688814       -1.4356279148       -5.8824155101
 H       -11.7551151295       -0.5205493035      -14.8153948834
 H       -12.5720296472       -1.1061373423      -13.3019477849
 H       -11.6364748550       -2.2399610345      -14.2973642929
 H        -8.2805461982       -0.6174445784      -13.7553311594
 H        -9.4092507186       -0.0433326576      -14.9576326907
 H        -9.0816081832       -1.7164178006      -14.8908160121
 H        -7.6019134433        4.3594393944      -10.0659729574
 H        -6.9127255757        4.0084181565       -8.3853029423
 H        -8.7048628806        3.6545883378       -8.8188235519
 H        -5.3445612445        1.3024667169      -10.2629563292
 H        -5.1438138228        2.5184325212       -9.0772462026
 H        -5.4190370791        2.8869260956      -10.7064707143
 H        -6.7420222345       -1.0884724869       -2.5077653237
 H        -7.5076307490        0.1496174619       -3.2696718557
 H        -6.1311214276        0.4983689092       -2.4192955070
 H        -3.9570849308        0.0483918964       -3.1965601355
 H        -3.6712582721       -0.0606828743       -4.9566547867
 H        -3.8056778181       -1.4785233550       -4.0474093223
 H        -6.0721621042       -7.0979204665       -7.3878834824
 H        -7.0665711379       -6.8727636402       -8.7823549280
 H        -7.1161240553       -5.7055812557       -7.5346554151
 H        -3.2584831009       -5.8148793618       -9.1406806346
 H        -4.2981669960       -7.0542869827       -9.8651103247
 H        -3.9045937291       -7.0597905273       -8.1847786325
 H        -2.2615851254       -0.4481884761      -13.4214472665
 H        -2.9977651720       -0.2535525128      -11.9525115540
 H        -3.9406427530       -0.1584782478      -13.4139736720
 H        -4.3859417772       -2.6104660044      -14.5126960679
 H        -3.1888329997       -3.9266999398      -14.2385441385
 H        -2.6774816494       -2.4565942918      -14.7643613622
 H         1.6905392939       -5.6376870657      -13.9335068970
 H         1.5853201567       -6.0010598289      -12.2338358239
 H         3.1936029712       -6.1481031828      -13.1156221446
 H         3.9288481510       -4.8721943813      -11.0266873900
 H         2.3480959689       -4.6250784278      -10.4421291240
 H         3.4907983324       -3.2852663496      -10.6683014266
 H         7.3359057792       -2.5640869866      -10.4173060447
 H         7.4791112222       -0.7580749981      -10.3712857028
 H         8.9392516176       -1.6798438258      -10.2479150658
 H        10.1396448150       -0.4565131348      -12.1734655512
 H         8.6208083960        0.2460041340      -12.3888230248
 H         9.3083161663       -0.6317570031      -13.7267516872
 H        11.9333436762       -5.5418313487      -15.6007638960
 H        13.4475503133       -4.7183335900      -14.7596875662
 H        13.0831673835       -4.6164779923      -16.5120736130
 H        12.4126860130       -2.3830131748      -17.0779029607
 H        13.4393969814       -2.1628554986      -15.9004755078
 H        11.8689434866       -1.2864087127      -15.8088931573
 H         4.4596455398       -4.1095671882      -18.6797709083
 H         5.3802639738       -5.4334786276      -17.7887261877
 H         5.6203511366       -5.0690341300      -19.6500666312
 H         7.2968232039       -1.9527045701      -19.6272544821
 H         5.9697780695       -2.6750409729      -20.3334011190
 H         7.4935115450       -3.5821558539      -20.2138136934
 Na        7.1500682080       -3.8221363148      -14.9869634368
 Na       -7.7486438784       -1.6524552062      -10.1772175642
