232

 C         5.0547067870       -1.3537685420      -18.0177391424
 C         5.8140121614       -2.5242418237      -17.3005597063
 O         5.7011160425       -2.7926755051      -16.1449667908
 C         6.4050515355       -3.6208190454      -18.3696779310
 C         7.6316536869       -4.2807897965      -17.7061566291
 O         7.4112824765       -5.1605970949      -16.8310501540
 C         9.0824229276       -4.1110658510      -18.2062316893
 C        10.0712381485       -4.7401392718      -17.1881473367
 C        10.2563904813       -3.7949787285      -15.9628571471
 O         9.3199298891       -3.3878240300      -15.2592207644
 C        11.6732100461       -3.4823132531      -15.3776157007
 C        11.4831535257       -2.9972354870      -13.8204314272
 O        11.8778693708       -1.9045522732      -13.4462497777
 C        11.1935269642       -4.0423796777      -12.8022183450
 C        10.1098168113       -3.6749027934      -11.6932006892
 C         8.7695599504       -3.2368262316      -12.4277448740
 O         8.1208336541       -4.2088879460      -12.8206005353
 C         8.1866521861       -1.7677837347      -12.2433231478
 C         6.8240995091       -1.6564678806      -12.9672283179
 O         6.9493367016       -1.2428761213      -14.1346938465
 C         5.5257743935       -1.8358205618      -12.2315854030
 C         4.3308985169       -2.1182354804      -13.1659262637
 C         3.9958308249       -3.7218044693      -13.4508974115
 O         4.6979023877       -4.4452345481      -14.0764620547
 C         2.7326811771       -4.1446407823      -12.6329437083
 C         1.4726798013       -3.2353689648      -12.8626205805
 O         1.2686682505       -2.8376687213      -13.9944249777
 C         0.3421250619       -3.1780506493      -11.6866155290
 C        -0.8539312570       -2.3954834412      -12.1772905377
 C        -2.2535447925       -2.9395159664      -12.0198465991
 O        -2.4680516624       -3.8423237319      -11.2015687767
 C        -3.4023491440       -2.2612186181      -12.7669921996
 C        -4.7427226105       -2.4228786766      -11.9858762054
 O        -5.0381685693       -1.5848422781      -11.1382744732
 C        -5.6874929659       -3.5255178826      -12.3301373219
 C        -5.3713573180       -4.6787921298      -11.3653403244
 C        -6.0436406310       -4.5059548723       -9.9850428314
 O        -7.0195849036       -3.8628403093       -9.7261771250
 C        -5.4610821245       -5.3037331580       -8.7785275120
 C        -4.9394544801       -4.1817036381       -7.8555774414
 O        -3.8481337834       -3.6818756214       -8.1220168610
 C        -5.8059141617       -3.7165932067       -6.7271450692
 C        -5.3358831290       -2.3390830657       -6.2768915671
 C        -6.2444631610       -1.7016460211       -5.1766981495
 O        -7.2562078203       -2.2487592759       -4.8610329589
 C        -5.7886018726       -0.4765824575       -4.4384995451
 C        -6.1219332043        0.8112078096       -5.2124044408
 O        -5.2883945797        1.6796973554       -5.4759451262
 C        -7.5098511539        0.7634557468       -5.7583988890
 C        -7.7478334945        1.7046083272       -6.9915630263
 C        -7.3616630842        1.0884108801       -8.3269323948
 O        -7.0795362512       -0.0925483792       -8.5072297819
 C        -7.2816220573        2.2153719485       -9.4856217584
 C        -8.2573706280        1.7024963585      -10.6546911255
 O        -8.1866080042        0.5648623650      -11.0283407905
 C        -9.1309135952        2.5941440677      -11.5011872487
 C        -9.5083746785        1.8982368750      -12.8212239295
 C       -10.4505725744        0.6921424589      -12.6411182690
 O       -11.5729736132        0.8899865257      -12.1348813175
 C       -10.3178634823       -0.6948434103      -13.2423433607
 C       -10.0177446781       -1.6525750967      -11.8446690558
 O        -9.1140010242       -2.4190470400      -11.8248484456
 C       -11.0449044892       -1.5594377162      -10.6433802677
 C       -10.9843828328       -2.7113629903       -9.5152650403
 C       -10.3498985302       -2.3020998926       -8.2199618904
 O        -9.1598873060       -2.0571330311       -8.2138311908
 C       -11.0576263669       -2.5192001836       -6.8074755298
 C       -12.6264973952       -2.5036465214       -6.8149194872
 O       -13.3037634728       -2.5976084756       -7.8180273144
 C       -13.2683998568       -2.5536766447       -5.3962229433
 C       -14.4843553735       -1.6978949399       -5.1616569854
 C       -14.1425087896       -0.2357616552       -5.6820807675
 O       -13.2231432325       -0.0538133222       -6.4601714178
 C       -14.8574619001        0.9672750387       -4.9445752385
 C       -13.9414888910        1.3764489021       -3.6582839352
 O       -14.5096028122        1.6365095314       -2.6461658054
 C       -12.4034866280        1.3539784096       -3.7506755988
 C       -11.7967251374        2.3787305141       -2.7561537579
 C       -10.3788667019        2.7726425506       -2.9645217656
 O        -9.8595670788        2.9223476392       -4.0979086814
 C        -9.6124578815        3.2702221166       -1.7434469822
 C       -10.5396224677        4.2625300105       -0.9605501440
 O       -11.2466050682        3.7941103577       -0.1045477290
 C       -10.4276661419        5.7305117311       -1.3096264563
 C        -9.3268185943        2.0922148388       -0.7740305648
 C        -8.1888480671        3.7648521251       -2.1829969761
 C       -14.9927152895        2.1003159153       -5.9503492408
 C       -16.2398597651        0.5767404423       -4.3974155947
 C       -10.6215946230       -3.8776145530       -6.2963897020
 C       -10.4362716308       -1.3543249418       -6.0027153662
 C       -11.6325220453       -1.2207890285      -13.8356560251
 C        -9.2417556598       -0.8753891198      -14.2404407724
 C        -7.7286342792        3.6931863248       -9.0981053842
 C        -5.8324870768        2.2105684843       -9.7721952665
 C        -6.6016102579       -0.3870456646       -3.0775112141
 C        -4.3386702658       -0.5438433163       -3.9644707264
 C        -6.5868923258       -6.2040092466       -8.1767529058
 C        -4.2041890842       -6.3181708747       -9.0356801114
 C        -3.1904309493       -0.7739744233      -12.7963377640
 C        -3.5451576691       -2.8608003709      -14.2793060070
 C         2.2088772047       -5.5804848389      -13.0183341376
 C         3.1929200715       -4.0716239953      -11.0822700401
 C         7.9440445298       -1.6564459299      -10.6317531874
 C         9.1790046426       -0.6340558951      -12.6691311551
 C        12.5640080235       -4.7422321150      -15.4752185571
 C        12.1945567595       -2.2125061679      -16.0925863208
 C         5.3385502883       -4.7483684727      -18.6381576541
 C         6.7756408374       -2.8915548593      -19.7016662491
 H         4.3860473995       -1.8826794401      -18.6684303323
 H         5.8671829855       -0.7135451573      -18.5034390071
 H         4.4657171527       -0.8111692186      -17.3686776129
 H         9.3058376591       -3.0299989706      -18.3271158597
 H         9.1729813531       -4.4517308878      -19.2633809219
 H        11.0879402832       -4.7474251063      -17.5872364350
 H         9.7593036869       -5.7130855039      -16.8507670788
 H        12.1437008089       -4.1801090838      -12.2786161303
 H        10.9022260615       -4.9791651806      -13.2601116978
 H        10.4765650397       -2.9016728981      -10.9910683460
 H         9.8992546038       -4.6207915436      -11.1610042651
 H         5.2529018245       -0.8643601957      -11.8257448756
 H         5.6214651756       -2.6353744345      -11.4869353488
 H         4.4874773300       -1.5753811636      -14.0464821152
 H         3.4448631726       -1.6703410950      -12.7521676656
 H         0.7340146832       -2.9573625237      -10.6644025662
 H         0.1209752119       -4.2383616098      -11.6012162499
 H        -0.7059213786       -1.9664847106      -13.1537100777
 H        -0.9539824018       -1.4933813931      -11.6576670020
 H        -5.4928750347       -3.8331737070      -13.2973455700
 H        -6.7611001732       -3.3685858372      -12.2556742173
 H        -4.3121435482       -4.9096380200      -11.3196450928
 H        -5.8682071586       -5.6037381097      -11.7379109604
 H        -5.8776129262       -4.3482172085       -5.7693517147
 H        -6.8614753361       -3.6439310944       -7.0372899718
 H        -5.2784592799       -1.7409131871       -7.1424280232
 H        -4.3419317324       -2.5072905162       -5.7951716125
 H        -8.2191246965        1.1082113231       -5.0731967497
 H        -7.6355397815       -0.2239283494       -6.2364121716
 H        -7.0507642647        2.6236446737       -6.8261707541
 H        -8.8243347796        1.9714354274       -7.0005177336
 H        -8.7391225542        3.6133770875      -11.6676663692
 H       -10.1375215730        2.7578435580      -11.0705847840
 H        -8.6668507722        1.6152064730      -13.4872887758
 H       -10.2018005967        2.5750256465      -13.3263061994
 H       -12.0436157180       -1.5390053253      -11.0798389758
 H       -11.0504546400       -0.5565435543      -10.1514415188
 H       -10.3220327604       -3.3801169029       -9.9768489989
 H       -12.0238103326       -2.9904879295       -9.3356128323
 H       -12.5040180567       -2.3338043012       -4.5678197862
 H       -13.5242410820       -3.6431377354       -5.3012117138
 H       -14.8813748613       -1.5965509402       -4.1679382214
 H       -15.3330595773       -2.0892664141       -5.8531896674
 H       -12.0930856453        1.4862081023       -4.8226289042
 H       -11.9150027782        0.3963071133       -3.6475765976
 H       -11.9287213696        2.1458680066       -1.7208870673
 H       -12.2909914865        3.3730002112       -2.8777731029
 H       -11.3865581141        6.1531226695       -0.9123219784
 H       -10.5545212383        5.8150211258       -2.4030279066
 H        -9.5016961703        6.1389065760       -0.8999449430
 H        -8.8020589003        1.3424343445       -1.3475376169
 H       -10.2830676733        1.6929140360       -0.4240341233
 H        -8.7706601165        2.3909242968        0.0567974009
 H        -7.4423126898        3.0006242802       -1.8221530444
 H        -8.0937779595        4.7198095638       -1.7180740829
 H        -8.0583589131        4.0567261144       -3.2466607399
 H       -15.8474931050        1.8007296680       -6.6160321483
 H       -14.1012254601        2.1507289235       -6.5260853100
 H       -15.2116653880        3.1064158498       -5.4992636970
 H       -16.1683636960        0.2999814235       -3.3091235860
 H       -16.6227732419       -0.2795409490       -4.9882416245
 H       -16.9463643282        1.3637245338       -4.6229363709
 H       -11.3189590896       -4.6000627222       -6.7530072613
 H       -10.6382716284       -3.8945906156       -5.2415796785
 H        -9.5640997933       -4.1030667029       -6.5034490763
 H       -10.7312970108       -1.4859802952       -4.9885460382
 H       -10.9115355946       -0.4327078408       -6.2171530037
 H        -9.3700374619       -1.2981058064       -6.1025102797
 H       -12.0619093591       -0.6071615459      -14.5852904446
 H       -12.4156130429       -1.4978327618      -13.0573098931
 H       -11.3253143380       -2.2153709790      -14.2890690513
 H        -8.2786516093       -0.9931271130      -13.7193532803
 H        -9.0713485601       -0.0873197295      -14.9860250257
 H        -9.3752138158       -1.6962204852      -14.9171585301
 H        -7.4703870592        4.3255521248       -9.9479877047
 H        -7.1821722502        3.9020399417       -8.2348418811
 H        -8.8051463192        3.7865592048       -8.9518856028
 H        -5.4087775563        1.2631563279      -10.0326671975
 H        -5.2826821128        2.6050359873       -8.9060988071
 H        -5.4193346080        2.8357907019      -10.5852438880
 H        -6.1978433661       -1.0736579578       -2.3454593781
 H        -7.6137948839       -0.5878258495       -3.2647482529
 H        -6.5566774921        0.5940843134       -2.7111907793
 H        -4.1022939391        0.2351411221       -3.2729070926
 H        -3.6710028731       -0.4935191897       -4.7553300994
 H        -4.0966517532       -1.5046918511       -3.5424193678
 H        -6.2364734343       -6.9392266932       -7.4859640746
 H        -7.0669370842       -6.8377454818       -8.9518652010
 H        -7.4059592594       -5.5539640233       -7.7804622049
 H        -3.2597273376       -5.8576577005       -9.3295570922
 H        -4.4483101068       -7.0984259930       -9.8326677886
 H        -3.9534637085       -6.8282828292       -8.1300515253
 H        -2.3014298678       -0.4776723327      -13.2844528182
 H        -3.1202448153       -0.1353607942      -11.8836190089
 H        -3.9649799573       -0.3372605805      -13.3990496959
 H        -4.5082237637       -2.5034099081      -14.5632874263
 H        -3.4957885216       -3.8949575166      -14.3064273876
 H        -2.7379103034       -2.5791873816      -14.9444928197
 H         1.5603349243       -5.5331227866      -13.9300946471
 H         1.5851672852       -6.0893074826      -12.2597030497
 H         3.0159518643       -6.2494203289      -13.3073250893
 H         4.1695756744       -4.5760269139      -10.9110491366
 H         2.4956642694       -4.6711525603      -10.4540353293
 H         3.3818281373       -3.0789382435      -10.6963489134
 H         7.2913447216       -2.4954846882      -10.3721151655
 H         7.4776473722       -0.7224963849      -10.4376341403
 H         8.9378158169       -1.5163693050      -10.1783713742
 H        10.0265153610       -0.4595567233      -11.9561174732
 H         8.7138127020        0.2922487013      -12.7648560305
 H         9.6571437774       -0.8463660012      -13.6214481854
 H        11.8986977033       -5.5085977809      -15.2310886239
 H        13.4810176014       -4.5571411681      -14.8337718388
 H        12.9509902312       -4.9494938952      -16.4700920833
 H        12.3323743518       -2.3630157304      -17.1820268203
 H        13.2244550390       -1.9487412991      -15.9758672027
 H        11.5886447144       -1.3512383204      -15.8982731005
 H         4.2685610678       -4.3330798606      -18.7190003826
 H         5.4235224623       -5.4360532288      -17.7107683171
 H         5.5352337505       -5.3073070602      -19.5657637681
 H         7.1739294338       -1.8837304554      -19.4649164065
 H         5.9736626995       -2.8166480228      -20.4058981987
 H         7.5956687407       -3.4333762137      -20.0690353126
 Na        7.0532430598       -3.6945940238      -14.8421449842
 Na       -7.7235520685       -1.7443634903      -10.2583417799
