232

 C         4.9426854664       -1.3829549233      -18.0952337088
 C         5.6460794327       -2.5733752796      -17.4862705752
 O         5.7050341708       -2.5640830505      -16.2512078214
 C         6.3563852117       -3.6856827773      -18.3605785342
 C         7.5626573552       -4.3795139674      -17.6357222238
 O         7.3847577974       -5.1858818921      -16.6924156510
 C         8.9343979256       -4.0701869050      -18.1798653206
 C        10.0442616199       -4.5913126337      -17.2138972974
 C        10.2400132283       -3.8138294507      -15.8818904685
 O         9.2659998875       -3.2894355268      -15.4285689425
 C        11.6495330945       -3.4697221800      -15.3849168743
 C        11.5639449616       -2.9406030258      -13.8916821047
 O        11.7481180316       -1.8256719853      -13.6580943141
 C        11.1521145155       -4.0917578778      -12.8296305196
 C        10.1378490426       -3.5781450776      -11.7315152729
 C         8.6559383873       -3.3022930770      -12.2690398088
 O         8.0115303882       -4.2012218037      -12.8280552952
 C         8.2066253536       -1.8611913456      -12.1784375093
 C         6.9135651445       -1.6213774141      -13.0116773665
 O         6.9240934471       -1.2513176247      -14.1698012518
 C         5.5515274448       -1.7980019363      -12.3514281806
 C         4.3950870862       -2.2039902352      -13.3402915311
 C         4.0856103468       -3.7062827556      -13.3343585488
 O         4.8965872592       -4.4353510713      -13.9170817492
 C         2.8128861836       -4.2301591066      -12.5818080498
 C         1.4690666200       -3.3935753372      -12.8291369677
 O         1.3207245130       -2.7181317736      -13.8604866437
 C         0.4421131055       -3.1720389871      -11.7088143070
 C        -0.7372790387       -2.3175910615      -12.1556551600
 C        -2.2265326847       -2.9315767946      -11.9572783087
 O        -2.4700439032       -3.9131814355      -11.3476492704
 C        -3.4738515941       -2.1176945279      -12.8061828209
 C        -4.8348821893       -2.3540332237      -12.0738881960
 O        -5.2307121198       -1.5543967426      -11.2530120027
 C        -5.7678733522       -3.6072837481      -12.3730386226
 C        -5.4549315920       -4.7468081333      -11.3782746119
 C        -6.0274900515       -4.5197538933       -9.9567329669
 O        -6.8723323465       -3.6953473078       -9.8112598049
 C        -5.5711817553       -5.3352633334       -8.7966821796
 C        -4.9500404280       -4.2416792214       -7.8035907647
 O        -3.8763399469       -3.7258376871       -8.0276193178
 C        -5.8299432516       -3.6582407814       -6.7780119793
 C        -5.3682469005       -2.2683299218       -6.3497273364
 C        -6.1546019726       -1.7895217586       -5.0618669363
 O        -7.2877650000       -2.3100456944       -4.9778576055
 C        -5.7400684750       -0.4837439699       -4.2879014440
 C        -6.1291308783        0.7317964095       -5.3056786345
 O        -5.4498558703        1.7064016736       -5.5665135360
 C        -7.5834025801        0.6270735291       -5.8058554283
 C        -7.7858203283        1.6834337038       -6.9348712069
 C        -7.5097501147        1.1032457583       -8.3114515189
 O        -7.2175260987       -0.0601579037       -8.4952099312
 C        -7.3989272192        2.1327022148       -9.4657179467
 C        -8.2451568360        1.5893357560      -10.7422346965
 O        -8.2252529076        0.3858269331      -10.9622601425
 C        -9.1456230996        2.6203549084      -11.4425619044
 C        -9.5931022443        1.9833894797      -12.8953923747
 C       -10.5764934810        0.7652055285      -12.6888241620
 O       -11.4750737536        0.9348613366      -11.8632725949
 C       -10.2007498564       -0.8310341046      -13.0829139832
 C       -10.0269211549       -1.6786362037      -11.8550789593
 O        -9.0598273317       -2.5108981311      -11.7584873824
 C       -10.9022673749       -1.5130273474      -10.6234099077
 C       -10.8996189569       -2.7869672479       -9.6454228336
 C       -10.1864719344       -2.3504406041       -8.3733542764
 O        -9.0718112839       -1.8551594856       -8.2459895366
 C       -10.9941828965       -2.4538683056       -6.9044716152
 C       -12.5604250378       -2.4556830161       -6.7680112440
 O       -13.2607325069       -2.5817764886       -7.7680318408
 C       -13.1896293539       -2.6229576858       -5.4010320610
 C       -14.4191448997       -1.7349483574       -5.1912762115
 C       -14.1412879107       -0.2673243252       -5.5557744836
 O       -13.1908927268       -0.0503099654       -6.3131246644
 C       -14.8777123841        0.8880932239       -4.9706895130
 C       -13.8971891528        1.3694153513       -3.7572483263
 O       -14.3675298382        1.7662239669       -2.7055690821
 C       -12.3392723194        1.3513018033       -3.8127862626
 C       -11.8413314568        2.3238974054       -2.6966803193
 C       -10.4047142502        2.8005581647       -2.9144473552
 O        -9.9017842045        2.7679165248       -4.0542754175
 C        -9.4939011879        3.2145426290       -1.6387046410
 C       -10.4301394646        4.2819054541       -0.9265305164
 O       -11.3213298199        3.9551633387       -0.1216105051
 C       -10.3611355628        5.7535519787       -1.4224468521
 C        -9.3740271499        1.8486915876       -0.8464017521
 C        -8.1634668967        3.9021174495       -2.1336467695
 C       -14.8645907136        2.0387906630       -6.0254856225
 C       -16.2872386534        0.5781096305       -4.3566579405
 C       -10.5319409988       -3.9196695536       -6.2752346604
 C       -10.4389357401       -1.3275484378       -5.9216818081
 C       -11.6372691118       -1.2497217653      -13.6766789367
 C        -9.0321129852       -0.9261606428      -14.1800741030
 C        -7.8861413193        3.5453753057       -9.0687433133
 C        -5.9013708013        2.1804995037       -9.8364266817
 C        -6.6804019946       -0.4546591230       -3.0272935824
 C        -4.2434870585       -0.5430659684       -3.8376013273
 C        -6.7333964905       -6.1057619957       -8.2462330338
 C        -4.3573760946       -6.1807352112       -9.2481280573
 C        -3.1011664724       -0.6622971795      -12.8380170857
 C        -3.5868395742       -2.7549925167      -14.2293802374
 C         2.3607405721       -5.6045124123      -13.0042474168
 C         3.2218293608       -4.0811448808      -11.1555040225
 C         8.0355685352       -1.5401709925      -10.5770586985
 C         9.1734807541       -0.8445981351      -12.6705726384
 C        12.5929920503       -4.6608845732      -15.3727379251
 C        12.1567122606       -2.2489022979      -16.2443814744
 C         5.2678401241       -4.7063517630      -18.6602584690
 C         6.7451781910       -2.9474280918      -19.6754350630
 H         4.1122894491       -1.6908860780      -18.7619046964
 H         5.7151847152       -0.7575782284      -18.4307340162
 H         4.4907730342       -0.9157418594      -17.2165102810
 H         8.9908521514       -2.9815593912      -18.2595993883
 H         9.0154215677       -4.3437860572      -19.2269273894
 H        10.9760262140       -4.7142396627      -17.6971566899
 H         9.7216538461       -5.5304819927      -16.7904985756
 H        12.0446779112       -4.3231285426      -12.2708150889
 H        10.7947026719       -5.0139445806      -13.3025679060
 H        10.5746952674       -2.6145243811      -11.3861132175
 H        10.0866691742       -4.2957831680      -10.9366827806
 H         5.1623074819       -0.8195218111      -11.9325006758
 H         5.5924116015       -2.6243606119      -11.6728547543
 H         4.6716645566       -1.9537328001      -14.4120553025
 H         3.4546256262       -1.6823680259      -13.1353636576
 H         1.0542351956       -2.7029143870      -10.9112068097
 H         0.1461779306       -4.1003168195      -11.2495534183
 H        -0.6266559803       -1.8279324818      -13.1245490721
 H        -0.7967404466       -1.3883722530      -11.5756534638
 H        -5.7023005705       -3.9703212739      -13.3816049163
 H        -6.7922967246       -3.3996390476      -12.1839159222
 H        -4.4023684478       -4.6569754274      -11.1933975542
 H        -5.5798245766       -5.7243408447      -11.8079281289
 H        -5.9728939321       -4.2794612462       -5.8508081544
 H        -6.8610826861       -3.5820401662       -7.1558104692
 H        -5.5907421413       -1.5877734939       -7.1789740298
 H        -4.3339836209       -2.4071026931       -6.1142649839
 H        -8.1340379997        1.0609602829       -5.0344283995
 H        -7.8453257039       -0.2977562197       -6.2382779978
 H        -7.1092720949        2.4591367720       -6.6823297788
 H        -8.8344952013        2.0298202577       -6.9592665684
 H        -8.6531133145        3.5678922034      -11.5517445382
 H       -10.1029101424        2.8397553553      -10.7989997280
 H        -8.6753071970        1.5153116310      -13.3511952243
 H       -10.0010311265        2.6789488031      -13.5973224339
 H       -11.9437578153       -1.3439449745      -10.9713996133
 H       -10.7358051738       -0.5492527343      -10.0323369302
 H       -10.2757002520       -3.4904862354      -10.2116221042
 H       -11.9189243215       -2.9688886940       -9.4338101883
 H       -12.4293208116       -2.2884729830       -4.6686128121
 H       -13.4122737403       -3.6817422925       -5.2161173510
 H       -14.8357140174       -1.7072789505       -4.1972215758
 H       -15.1998047409       -2.0763374610       -5.8333509643
 H       -11.9142875190        1.5193115479       -4.7956495073
 H       -11.8533739948        0.3392432977       -3.7182848689
 H       -11.9636805607        1.9921712779       -1.6583328145
 H       -12.4272675613        3.2897388921       -2.7440343224
 H       -11.1713159445        6.3957301642       -1.0205663017
 H       -10.5867307689        5.6759201262       -2.4996620337
 H        -9.2808695684        6.0521553177       -1.2014689259
 H        -9.0177268821        1.0229168980       -1.4855769559
 H       -10.3657789381        1.6155674648       -0.4119436901
 H        -8.6436970477        2.0258116571       -0.0484188934
 H        -7.4584862191        3.1334907900       -2.3973267294
 H        -7.7947860958        4.6976310625       -1.4971005553
 H        -8.4437128375        4.5158439981       -2.9792044385
 H       -15.7246545443        1.9583691540       -6.5903244802
 H       -13.9660497611        2.0007888843       -6.6551554006
 H       -14.8860650446        3.0229852175       -5.4741743087
 H       -16.1529865525        0.1217019036       -3.3044220741
 H       -16.8543319789       -0.1025776339       -5.0199534159
 H       -16.9023190567        1.5515413000       -4.4037225889
 H       -10.9780101341       -4.6582280500       -6.8318913144
 H       -10.6830019962       -4.0398894209       -5.2098514549
 H        -9.4838879661       -3.9951301547       -6.3367767083
 H       -10.7153183141       -1.6844581544       -4.9080358373
 H       -10.9448383277       -0.3103740993       -5.8511989226
 H        -9.3800168949       -1.2804307505       -5.9810406436
 H       -11.8826651567       -0.4537138058      -14.3820595524
 H       -12.4012824253       -1.3218219465      -12.9031539379
 H       -11.6576540691       -2.2109337882      -14.2250925884
 H        -7.9794533414       -1.0658100563      -13.8601430978
 H        -9.0185520985       -0.1789105575      -14.8458009940
 H        -9.2735085537       -1.7482147472      -14.8623653515
 H        -7.6031100001        4.1312364081       -9.8504134737
 H        -7.2648521223        3.6666808942       -8.1494212685
 H        -8.8909347694        3.7456116834       -8.8768112601
 H        -5.4419293393        1.2103533533      -10.2266809722
 H        -5.2048959249        2.5989237728       -9.0828235542
 H        -5.6429526831        2.8361746640      -10.6666804243
 H        -6.0431785170       -0.8728161763       -2.1144847429
 H        -7.4804355393       -1.2959402693       -3.2895489795
 H        -7.2467115236        0.4189737998       -2.7952812027
 H        -3.7467689701        0.3782246276       -3.5861012126
 H        -3.6718037070       -0.9541930809       -4.6991624996
 H        -3.9959062571       -1.2858161858       -3.1148942967
 H        -6.6301062203       -6.5833544106       -7.2805258345
 H        -7.0188194785       -6.9541300250       -8.8695271821
 H        -7.5855566889       -5.3396716590       -8.3663475867
 H        -3.5578738092       -5.5574095832       -9.7237846041
 H        -4.5596163796       -6.9641356950       -9.9538511514
 H        -3.7956363827       -6.5465789850       -8.3146297869
 H        -2.2064761478       -0.3787844494      -13.3781601613
 H        -2.9914140639       -0.1431889135      -11.9409767942
 H        -3.9315636396       -0.1096466848      -13.3535964667
 H        -4.3737307993       -2.3227990652      -14.8359097035
 H        -3.7119814753       -3.8474534563      -14.1202478237
 H        -2.5475795934       -2.7299031762      -14.6403570073
 H         1.8224289812       -5.4767203216      -13.9435556043
 H         1.6953857858       -6.1102550091      -12.3397113685
 H         3.1307192852       -6.2934462594      -13.2455258612
 H         4.2653096084       -4.3774628902      -10.9145068589
 H         2.6113521487       -4.6779238109      -10.4430560870
 H         3.2675537016       -2.9919661927      -10.9138395593
 H         7.3002704965       -2.3589250473      -10.2950010146
 H         7.4792724164       -0.6197007266      -10.5576275288
 H         8.9445417547       -1.2811982977      -10.1008556546
 H        10.0133418634       -0.6129147395      -12.0466690841
 H         8.6954399689        0.1645628060      -12.9228193892
 H         9.5757232888       -1.1930185860      -13.5533166104
 H        12.1124118289       -5.4265942404      -14.7908348785
 H        13.5131113507       -4.2639018373      -15.1477020612
 H        12.7716519395       -5.0424508981      -16.3887738702
 H        12.4238494000       -2.5033667041      -17.3125551834
 H        13.0821458353       -1.8951990102      -16.0541013833
 H        11.4488545200       -1.4197197052      -16.2228547763
 H         4.2944053323       -4.3044407740      -19.0159387321
 H         5.1678021387       -5.1296979486      -17.6839820129
 H         5.5596739239       -5.4641593733      -19.3575606919
 H         7.4036377937       -2.0379865903      -19.4792961854
 H         5.7674744264       -2.6755566700      -20.1425853169
 H         7.3650349533       -3.6430307846      -20.3483083259
 Na        6.9235442037       -3.7253779109      -14.6302491409
 Na       -7.5596433688       -1.7314421264      -10.2093319862
