232

 C         4.6600768473       -1.5297729418      -18.3660818507
 C         5.5776204914       -2.4440312048      -17.5870840821
 O         5.6917139786       -2.3819056572      -16.3871900367
 C         6.1738056777       -3.6650801957      -18.4025118913
 C         7.3057229403       -4.3117132134      -17.5972180807
 O         7.0852833010       -4.9264865567      -16.5726882137
 C         8.7478276290       -4.0347153614      -18.0927069924
 C         9.8952824171       -4.5611760424      -17.2471292172
 C        10.1912755372       -3.7949136501      -15.9439733550
 O         9.2642838301       -3.1450177653      -15.4128453889
 C        11.6265199655       -3.3848723085      -15.5056580172
 C        11.4251591068       -2.9250647485      -14.0124401180
 O        11.6981746969       -1.7656194944      -13.6968066507
 C        10.9829952121       -3.9776292643      -12.9595099217
 C        10.2208936854       -3.4885327008      -11.7246450788
 C         8.7982369960       -3.1958933318      -12.1364477559
 O         8.1272719348       -4.1338965805      -12.5208341599
 C         8.1630215742       -1.7453651404      -12.0817029351
 C         6.8372348050       -1.6122367680      -12.9059513862
 O         6.9688032962       -1.3896259787      -14.1082850179
 C         5.4750977630       -1.8177291260      -12.4175514654
 C         4.3527199022       -2.2267609695      -13.4456925754
 C         4.0974405480       -3.6820045540      -13.1827159614
 O         4.9229413962       -4.4793083122      -13.5036503016
 C         2.7839829572       -4.1784869098      -12.4730940276
 C         1.5248186684       -3.2823330034      -12.7973175965
 O         1.5161276152       -2.5760293556      -13.7624476526
 C         0.3366092078       -3.2014368310      -11.8283330239
 C        -0.7547202128       -2.1945652559      -12.2129092943
 C        -2.2079227498       -2.8720870125      -12.0627769705
 O        -2.3491360754       -4.0508210450      -11.6863451970
 C        -3.4395910597       -2.1025853534      -12.7032054006
 C        -4.8801004535       -2.2731127834      -12.1749208081
 O        -5.3693273229       -1.3110335008      -11.5781453196
 C        -5.6964349417       -3.4616500660      -12.5200655847
 C        -5.5024707650       -4.6917912022      -11.5559058320
 C        -6.0058616534       -4.5058045690      -10.1495833470
 O        -6.8021424207       -3.6239381271       -9.8531078707
 C        -5.5236476036       -5.3268782489       -8.9397949754
 C        -4.8860282768       -4.3431130297       -7.8634728119
 O        -3.7133467981       -4.0295591256       -7.9129183623
 C        -5.9174611216       -3.5719504970       -7.0124736913
 C        -5.3722294758       -2.2140813169       -6.3040613697
 C        -6.2749551853       -1.8725679482       -5.0751822063
 O        -7.2567524447       -2.4479630079       -4.7815029149
 C        -5.9048639611       -0.4904448790       -4.2023423319
 C        -6.2836822028        0.5873737843       -5.2101457889
 O        -5.3968762195        1.3690775762       -5.5092768714
 C        -7.6692030878        0.6055340220       -5.7560643495
 C        -7.9863960279        1.6611521368       -6.8010846474
 C        -7.5584002727        1.1536897640       -8.1755826970
 O        -7.2264572103       -0.0169864266       -8.2588765949
 C        -7.6034666295        2.0969937724       -9.4696468757
 C        -8.3677028047        1.5021596523      -10.7035964517
 O        -8.3144684547        0.3604759039      -11.0601824458
 C        -9.0365981501        2.5748989554      -11.6746618147
 C        -9.5669946180        1.8416621317      -12.8637278974
 C       -10.5490502204        0.7145874481      -12.4135349721
 O       -11.3339105041        0.8907511470      -11.5019346759
 C       -10.2985192180       -0.8038784690      -12.9739768096
 C        -9.9231752327       -1.7786358062      -11.6992463218
 O        -9.0575220854       -2.5535409314      -11.8874226400
 C       -10.8462171958       -1.5987254502      -10.4819449361
 C       -10.8258031840       -2.8117538479       -9.5618659284
 C       -10.1876118556       -2.3270592301       -8.2243165839
 O        -9.1633736110       -1.6903338481       -8.2066073667
 C       -10.8217648067       -2.5307083226       -6.8691032933
 C       -12.4192027824       -2.5601130003       -6.8370234757
 O       -13.0571625144       -2.5549336132       -7.8578622596
 C       -13.1389693301       -2.7544122152       -5.4519272904
 C       -14.3549724632       -1.8679947499       -5.2585680263
 C       -13.8882991627       -0.3725096903       -5.5233415877
 O       -12.8794326346       -0.2003681251       -6.1784676916
 C       -14.7225693462        0.8579494554       -4.9361052594
 C       -13.9498637530        1.5005646044       -3.6857492042
 O       -14.5338807164        1.9695286022       -2.7609216995
 C       -12.4682886037        1.6005696827       -3.8448666603
 C       -11.7393493461        2.1983461246       -2.6942053006
 C       -10.2900707721        2.6601483316       -2.9568533608
 O        -9.7553886640        2.5474278222       -4.0577449765
 C        -9.5434227388        3.2465826789       -1.7615350774
 C       -10.5135963700        4.3236011637       -1.0171306407
 O       -11.2188213347        4.0670339748       -0.0940787060
 C       -10.2478493097        5.7911618443       -1.5043049043
 C        -9.3730379637        1.9545796475       -0.7096640048
 C        -8.1144525622        3.6426465864       -2.1460252089
 C       -14.7829236070        2.0100243735       -5.9535532845
 C       -16.1544069092        0.5834371477       -4.4218250963
 C       -10.2719508996       -3.9259189195       -6.4599087708
 C       -10.2937754923       -1.4723860211       -5.8521806541
 C       -11.5370708972       -1.2514073273      -13.6736923741
 C        -9.0496985211       -0.8759042094      -13.8863312695
 C        -8.0742628862        3.5195739058       -9.1542047686
 C        -6.2075123588        2.0897679216      -10.0900554109
 C        -6.7026185751       -0.4370652415       -2.8476426080
 C        -4.3979540510       -0.3687620306       -3.9502024439
 C        -6.7419751703       -6.0327574984       -8.2806332511
 C        -4.5007488296       -6.4662315360       -9.1599397244
 C        -3.2404535583       -0.5304116439      -12.7726358421
 C        -3.2823051261       -2.6330305174      -14.2319608222
 C         2.7065665998       -5.6369247511      -12.9336124052
 C         3.1641918536       -4.2692833570      -10.9804584558
 C         7.8889362662       -1.3583940805      -10.5911164312
 C         9.2055021792       -0.6939433820      -12.7667904643
 C        12.5986452835       -4.6545110049      -15.5079360124
 C        12.1608543207       -2.3989257342      -16.4585519772
 C         5.0842676232       -4.7092456636      -18.6065291702
 C         6.7065673185       -3.2602342165      -19.8752519182
 H         4.1626257417       -2.1496691424      -19.0771374457
 H         5.3642143801       -0.7079551292      -18.7748315208
 H         3.9310465669       -1.1279279577      -17.7021637065
 H         8.9650586275       -2.9972597338      -18.3656442108
 H         8.8425346271       -4.5188681712      -19.0883126558
 H        10.8269698181       -4.4569059217      -17.8780203343
 H         9.7427717750       -5.6370657408      -17.0029182667
 H        11.9516816477       -4.4668601313      -12.6747123839
 H        10.4023319481       -4.7398153294      -13.4905007349
 H        10.7264537265       -2.6009678506      -11.3935275176
 H        10.0251136635       -4.2762521331      -10.9720938207
 H         5.1899951832       -0.8504099293      -12.0983319532
 H         5.3870786705       -2.6268659757      -11.6616432988
 H         4.7790100543       -2.2228561646      -14.4556587162
 H         3.4636165739       -1.5308557922      -13.4148622247
 H         0.6884990308       -3.0633751868      -10.7995024284
 H        -0.1422081771       -4.2241737085      -11.8184402467
 H        -0.6335918981       -1.7297261810      -13.2184189587
 H        -0.7726555226       -1.2509178381      -11.6263487640
 H        -5.4613755486       -3.9261716129      -13.5069868037
 H        -6.8191916627       -3.2676586851      -12.4403485146
 H        -4.4390785424       -5.0152356046      -11.5466383099
 H        -6.0527091024       -5.5182698251      -12.0566250582
 H        -6.2086874685       -4.2374595970       -6.2275837822
 H        -6.8387741094       -3.3475682391       -7.5064865101
 H        -5.4142847776       -1.3535023157       -6.9724737702
 H        -4.3466564954       -2.5023311240       -5.9490279116
 H        -8.2911748944        0.8290927177       -4.8442471970
 H        -7.8370605637       -0.3274179358       -6.3580157375
 H        -7.3615136845        2.5382917962       -6.4776444980
 H        -9.0028529753        1.9362054649       -6.9581829651
 H        -8.3261864853        3.2791606284      -12.1705524523
 H        -9.7537048703        3.1556351252      -11.2390746264
 H        -8.6682312838        1.4331922215      -13.3194412902
 H        -9.9452015384        2.4884881764      -13.7063252108
 H       -11.8502669090       -1.2755127081      -10.6890599500
 H       -10.5047752426       -0.7928009832       -9.8969257124
 H       -10.2226762898       -3.6344487295       -9.9673034794
 H       -11.9459590400       -2.8663465184       -9.4712140503
 H       -12.4575781438       -2.6511555114       -4.6408089488
 H       -13.5631553717       -3.7385514689       -5.5031030151
 H       -14.8278567194       -1.9550917599       -4.2879369385
 H       -15.1429270638       -2.1748859863       -6.0014443533
 H       -12.2758667115        2.2867880898       -4.6936622353
 H       -11.9983954339        0.7800748466       -4.3108050183
 H       -11.7068415482        1.6422914227       -1.7577218528
 H       -12.3118553053        3.0708207205       -2.4238318791
 H       -11.0170094977        6.4454800227       -1.1390534039
 H       -10.2916577860        5.8198412685       -2.5766927320
 H        -9.3155306275        5.9697846556       -1.0971627710
 H        -9.1812241577        1.0485277857       -1.3425991982
 H       -10.2761712949        1.7177200532       -0.1056404969
 H        -8.4510365731        2.1276731892       -0.1439416590
 H        -7.8396069917        2.9630341385       -2.9496383896
 H        -7.4662367069        3.5334345809       -1.3194535155
 H        -7.9376386061        4.6780136921       -2.3687736174
 H       -15.5100451851        1.7932563514       -6.7950255815
 H       -13.7944581546        2.0755133178       -6.3039914835
 H       -15.0415427475        2.9201754080       -5.4648855776
 H       -16.1068210827       -0.3691757256       -3.9777361064
 H       -16.8782606909        0.6318985302       -5.2411366333
 H       -16.4219990263        1.3046275612       -3.7233064013
 H       -10.2108914586       -4.5838318946       -7.3754953418
 H       -10.8026370551       -4.3961571943       -5.6661168565
 H        -9.2379581172       -3.7835709688       -6.0886961674
 H       -10.6117961909       -1.3360852847       -4.8185621949
 H       -10.5026360726       -0.4886785053       -6.2571926806
 H        -9.1810436113       -1.6424495324       -5.9690004106
 H       -11.5352333351       -0.8835065577      -14.6622796047
 H       -12.3033245040       -0.7579911432      -13.0761335241
 H       -11.7556405470       -2.3071464327      -13.6514971540
 H        -8.2445123982       -0.3553440036      -13.4008066693
 H        -9.2475149564       -0.2469530660      -14.8375627783
 H        -8.5763044580       -1.7791213120      -14.2438552586
 H        -8.2653908206        4.0177435270      -10.1702739743
 H        -7.4932261980        3.9729172715       -8.4146854203
 H        -9.1202772585        3.4211856376       -8.6865620274
 H        -5.7816982823        1.2089471865      -10.4369063369
 H        -5.4820545872        2.5192365913       -9.4277513665
 H        -6.0473966264        2.8128520655      -10.9084233517
 H        -6.1002952727       -0.1248545138       -2.0208651247
 H        -7.0908763459       -1.3973761293       -2.6822639900
 H        -7.5831808516        0.2130698143       -2.9668126196
 H        -3.9111577828        0.6474011297       -4.1175390721
 H        -3.7930300916       -1.0519789008       -4.5558070494
 H        -4.0769291362       -0.7287723841       -2.9162859113
 H        -6.5265985144       -6.1685704721       -7.2334073491
 H        -6.7786378941       -7.0809922260       -8.5892468460
 H        -7.6706255829       -5.6023371819       -8.5257664509
 H        -3.4845772686       -6.1751307479       -9.3062926189
 H        -4.7651627320       -6.8810446959      -10.1754976024
 H        -4.5152477807       -7.1154988641       -8.3577828940
 H        -2.3405623218       -0.3599853148      -13.3605946894
 H        -2.9339743565       -0.0182974833      -11.7877019489
 H        -3.9679325484        0.1190845082      -13.1635793694
 H        -4.0940021966       -2.0927917798      -14.8237164309
 H        -3.4685019206       -3.7095745071      -14.3037167908
 H        -2.2477475268       -2.3867080656      -14.5663836464
 H         2.7392802546       -5.7948404885      -13.9963491267
 H         1.8325524366       -6.0990920614      -12.4970571131
 H         3.5076333398       -6.2353989202      -12.5264700339
 H         4.0144902285       -4.9077224809      -10.8422336772
 H         2.4002370707       -4.7212166435      -10.3778917837
 H         3.4672794873       -3.3363822313      -10.5760220633
 H         7.0911533805       -1.9526533375      -10.2567534127
 H         7.6608710905       -0.2997352647      -10.4903027782
 H         8.8769981322       -1.4760009791      -10.0822235041
 H        10.2955835601       -0.7290340640      -12.4497014206
 H         8.8594791995        0.2766443115      -12.6414713148
 H         9.2383442133       -0.8460618250      -13.8883464134
 H        12.3451144003       -5.3531874505      -14.7480858334
 H        13.6463003818       -4.2790147140      -15.7284891239
 H        12.4539816408       -5.1162874559      -16.4604449449
 H        12.5578931498       -2.7375314319      -17.4030004591
 H        13.0801125040       -1.8489812061      -16.1102952479
 H        11.4314594999       -1.6275462905      -16.7574393499
 H         4.4869987303       -4.4290665558      -19.4324801955
 H         4.4697110534       -4.8845963785      -17.7317589617
 H         5.5383973755       -5.6186637865      -18.8763313468
 H         7.6501139780       -2.7031142650      -19.7924278128
 H         5.9022015817       -2.7036109600      -20.3689842869
 H         6.9324085020       -4.1247140999      -20.4738516467
 Na        6.7792317618       -3.9254908419      -14.7264872348
 Na       -7.2714535623       -1.3597105907      -10.0384731097
