232

 C         4.5340975472       -1.5707949538      -18.4910432708
 C         5.5046615207       -2.5168106067      -17.7291540119
 O         5.6714492203       -2.3247906559      -16.5310770753
 C         6.1611024044       -3.6769220280      -18.5440000790
 C         7.2995407366       -4.2148806513      -17.6333084534
 O         6.9650539066       -4.9089767311      -16.6181749925
 C         8.7254611564       -4.1139858766      -18.1669462384
 C         9.8121472252       -4.6553275504      -17.2095292885
 C        10.1609172939       -3.6703281909      -16.0349976376
 O         9.2476875339       -3.2598001592      -15.3141299038
 C        11.5909617802       -3.4068535243      -15.6070677953
 C        11.5524226247       -2.8997619089      -14.0040710113
 O        11.7791995840       -1.8107780999      -13.7357903747
 C        11.0140898859       -3.9842814607      -13.0005399890
 C        10.3098494639       -3.3953060882      -11.6944697892
 C         8.7732739575       -3.1039315815      -12.0991304903
 O         8.0445787760       -4.0282407235      -12.5211003697
 C         8.1704912636       -1.6363986278      -12.0735731220
 C         6.8424644596       -1.6594385540      -13.0320249826
 O         6.9403865638       -1.5002088232      -14.2532799913
 C         5.4900249429       -1.6857970055      -12.2271570914
 C         4.3944694762       -2.1307296636      -13.2380551256
 C         4.1080053463       -3.7175425722      -13.1065616862
 O         4.9837582851       -4.5071502279      -13.4341932502
 C         2.7988972811       -4.2449408886      -12.3251141821
 C         1.5391783094       -3.2887616226      -12.7640465113
 O         1.6196623869       -2.5460646533      -13.7685170523
 C         0.2671102459       -3.3582949225      -11.8745533370
 C        -0.7829381756       -2.3412197022      -12.2178782128
 C        -2.2034413982       -2.8379776888      -12.1636540677
 O        -2.3592464521       -3.9819621212      -11.8170914372
 C        -3.3099266789       -1.9503239580      -12.8288476777
 C        -4.7524877939       -2.2046350458      -12.2446608162
 O        -5.2907587186       -1.2477011741      -11.6672530371
 C        -5.6947411219       -3.4503418577      -12.5547737542
 C        -5.4366906381       -4.7423278703      -11.5573493897
 C        -5.9960111325       -4.4551944963      -10.1458062465
 O        -6.8286035108       -3.6268450711       -9.9433108148
 C        -5.5035079600       -5.4368626947       -8.8698662927
 C        -4.8376046105       -4.2494643480       -7.8861480225
 O        -3.6337624628       -4.1866783192       -7.8481433048
 C        -5.8908975927       -3.4991753394       -7.0845928441
 C        -5.4119691135       -2.3242102373       -6.1865282434
 C        -6.2842956931       -1.9872035927       -4.9706079958
 O        -7.2750757038       -2.6208246503       -4.6554677134
 C        -5.9033485993       -0.6045490050       -4.1766509721
 C        -6.2868323486        0.7152285251       -5.2443686025
 O        -5.4579132327        1.4704806700       -5.7247486524
 C        -7.7290019266        0.7935304420       -5.6104917621
 C        -8.0153471766        1.7070741572       -6.8258347401
 C        -7.6058505708        1.1573734126       -8.2042337266
 O        -6.9865548699        0.0938417936       -8.2154456578
 C        -7.7090515063        2.1349037012       -9.4556130693
 C        -8.4467726811        1.6208762298      -10.6699280244
 O        -8.3945211524        0.4516946639      -11.0312449932
 C        -8.9955518859        2.6089129758      -11.7376247389
 C        -9.6663805355        1.8357941632      -12.9375940793
 C       -10.4040634090        0.6379176843      -12.3880885221
 O       -11.2864262719        0.8596390311      -11.4814231877
 C       -10.2633588563       -0.7241778463      -12.9606796957
 C        -9.9955658615       -1.8297220502      -11.7385530055
 O        -9.0505430070       -2.5969418197      -11.6757617105
 C       -10.9512293645       -1.6984557501      -10.5719150444
 C       -10.7065787066       -2.8672869865       -9.4393125246
 C       -10.1877901995       -2.2753477089       -8.1856442694
 O        -9.1022287678       -1.6579640135       -8.2069221556
 C       -10.7603580592       -2.6113184671       -6.8183921438
 C       -12.4161538482       -2.6455211726       -6.7876205309
 O       -12.9909844628       -2.5426967413       -7.8629947726
 C       -13.1764900526       -2.8649648795       -5.5486649054
 C       -14.2942958676       -1.8083150928       -5.3104717474
 C       -13.8562808774       -0.3862738673       -5.5027640949
 O       -12.8110943366       -0.1390150276       -6.0889153479
 C       -14.6889008041        0.7835986703       -4.9329711115
 C       -13.9313174182        1.5384288020       -3.6968024340
 O       -14.6038671876        1.9906140164       -2.7836764370
 C       -12.4374893848        1.8072755315       -3.9047681805
 C       -11.6814667237        2.2300418718       -2.6697267972
 C       -10.2456427516        2.6010828123       -2.9037322519
 O        -9.7294245375        2.4461239400       -4.0690470055
 C        -9.3960574814        3.1456294774       -1.7082519010
 C       -10.2683374283        4.3639632548       -1.0022503787
 O       -11.1390327782        4.0238998380       -0.1693367855
 C       -10.2278349919        5.8022358845       -1.4961060471
 C        -9.4735870023        2.1070595502       -0.5461631397
 C        -8.0392272856        3.5618909400       -2.2229142084
 C       -14.7300743365        1.9511148869       -6.0287571557
 C       -16.1738672790        0.3841439150       -4.5453678762
 C       -10.2205242165       -4.1409525116       -6.4359110396
 C       -10.2613605869       -1.5799265154       -5.7737786122
 C       -11.6042510273       -1.2666477792      -13.6974094956
 C        -9.0806749772       -0.8570178388      -13.9856349838
 C        -8.0961904844        3.5681589104       -9.0704777724
 C        -6.1988822342        2.1551565752      -10.0394545459
 C        -6.7200105484       -0.5254417241       -2.8758664633
 C        -4.4123810159       -0.4737532610       -3.8954808958
 C        -6.8297575866       -6.0218371635       -8.2663288511
 C        -4.4614160524       -6.5876128043       -9.1761786667
 C        -3.1360582738       -0.5050837177      -12.6774014997
 C        -3.2764790694       -2.5707429267      -14.3151971475
 C         2.4637633169       -5.6273592799      -12.9228692048
 C         3.0512136539       -4.1948170418      -10.7907729726
 C         7.9090786210       -1.2477852854      -10.5838041511
 C         9.0338443956       -0.5202126310      -12.6279799827
 C        12.4234603966       -4.7637578710      -15.5903689037
 C        12.1576905126       -2.2662041927      -16.4689818840
 C         4.9901502834       -4.7290626008      -18.5248842111
 C         6.5358417993       -3.3181277465      -19.9618240591
 H         4.0150910279       -2.1667471687      -19.2549663171
 H         5.2432993859       -0.8143534748      -18.8933841253
 H         3.8382307296       -1.1284639414      -17.8260370844
 H         8.8765072960       -3.0018900366      -18.1950088976
 H         8.7746084208       -4.3772131778      -19.2593266980
 H        10.7547575584       -4.9584187110      -17.7316227456
 H         9.4440773902       -5.5277563284      -16.6308145111
 H        11.9375232370       -4.5474263677      -12.7925827643
 H        10.3608468238       -4.7065452312      -13.5047688144
 H        10.7953099334       -2.4144000016      -11.5251381158
 H        10.2423408737       -4.0824887343      -10.8446788970
 H         5.3387261330       -0.6692183722      -11.9373156166
 H         5.4432476698       -2.4317680656      -11.4674685565
 H         4.8101078399       -1.9510243787      -14.1873842801
 H         3.5289995442       -1.5462899400      -13.1090103749
 H         0.5455060990       -3.2249207135      -10.7871835370
 H        -0.1331159394       -4.3890214713      -11.9841903624
 H        -0.5990870491       -1.7991148543      -13.1449980197
 H        -0.7512489422       -1.5229030318      -11.5507689330
 H        -5.4629267667       -3.8926236970      -13.4968055885
 H        -6.7702535799       -3.1320312527      -12.5182665289
 H        -4.3571837037       -4.9837866040      -11.6663651502
 H        -5.9962468974       -5.6585726762      -11.9117701871
 H        -6.4694066038       -4.3165423668       -6.5614594403
 H        -6.6082975078       -3.0338869335       -7.7427863623
 H        -5.3810238109       -1.4435185917       -6.7746561307
 H        -4.4051319507       -2.6830867010       -5.8375664382
 H        -8.3033754052        1.1845043938       -4.7651220071
 H        -8.0028730082       -0.2056823388       -6.0939317398
 H        -7.3584720372        2.6460242757       -6.6015168451
 H        -9.0889310260        2.0202444101       -6.9555453571
 H        -8.2808089666        3.2822907005      -12.1453362852
 H        -9.7828014110        3.2298768559      -11.2889685517
 H        -8.9297668853        1.6526569250      -13.7693982935
 H       -10.4119436657        2.4165484018      -13.4781094178
 H       -11.9779804679       -1.5963677947      -10.7985333309
 H       -10.7203373423       -0.7732386854      -10.0614878415
 H        -9.9335464975       -3.5604260098       -9.7150789111
 H       -11.7256870645       -3.1790418195       -9.2998479807
 H       -12.4525649668       -2.7818050666       -4.6735413032
 H       -13.6957899823       -3.8246117801       -5.5878750729
 H       -14.7614496172       -1.9183849083       -4.3213780404
 H       -15.1942514622       -1.8906417034       -6.0567431446
 H       -12.1911255192        2.4590978192       -4.7769230474
 H       -11.9465256229        0.9237342401       -4.2842172767
 H       -11.5474028980        1.4071184007       -2.0126885056
 H       -12.2284714578        2.9340415537       -2.0457351374
 H       -11.2468109806        6.0626678220       -1.2703167774
 H       -10.1680805338        5.8236115735       -2.5399338730
 H        -9.5213716145        6.3831859529       -0.9395859710
 H        -9.2404371727        1.1445590285       -0.9981613936
 H       -10.5077576182        1.9830174208       -0.2665492528
 H        -8.8080122576        2.3242162653        0.2260527266
 H        -7.6730405160        2.8569873426       -3.0192858006
 H        -7.3088827707        3.6952318868       -1.4405662392
 H        -8.1109541751        4.5975148210       -2.6117476688
 H       -15.1651726667        1.5654856456       -6.9343103310
 H       -13.7018172468        2.1954006179       -6.1892666906
 H       -15.3051494178        2.8762094943       -5.6621270369
 H       -16.1422813971       -0.6397955907       -4.2648790775
 H       -16.7998657507        0.5594063645       -5.3364858606
 H       -16.4565650451        0.9427396431       -3.6891708584
 H       -10.2402115332       -4.7590201006       -7.3743478198
 H       -10.7324256734       -4.6803910285       -5.5940251183
 H        -9.1145470293       -4.0494860301       -6.1540129349
 H       -10.8902082301       -1.4271692081       -4.9127398352
 H       -10.2012682244       -0.5829498716       -6.1756317780
 H        -9.3315382445       -1.9003552243       -5.4583170317
 H       -11.5436729936       -1.0201097444      -14.7130945951
 H       -12.5008559729       -0.8487880509      -13.1975016387
 H       -11.6574472478       -2.3789413630      -13.5819445881
 H        -8.0461883234       -0.4560579880      -13.6599289253
 H        -9.3279714670       -0.3132441502      -14.8542101012
 H        -8.7815899626       -1.8750173950      -14.3428951951
 H        -8.0073320413        4.1632668720       -9.9808072731
 H        -7.4686756962        3.9048875900       -8.1752872977
 H        -9.1420710592        3.6234414815       -8.7012916511
 H        -5.7812416340        1.1854311118      -10.2299181501
 H        -5.4703562341        2.6326662633       -9.4201945195
 H        -6.0517007458        2.7053967253      -10.9344008509
 H        -6.2444425345        0.1351640534       -2.2014756365
 H        -6.8746605660       -1.4303854311       -2.4074545326
 H        -7.5873479751       -0.1769189492       -3.1165371035
 H        -4.1065635248        0.5868911007       -3.7952163520
 H        -3.7078648966       -0.8487206071       -4.6157185355
 H        -4.1248297160       -0.9474379964       -2.9556931625
 H        -6.6052766063       -6.4668615542       -7.3638363282
 H        -7.1683358747       -6.8166526995       -8.9164235955
 H        -7.6600252065       -5.2706658435       -8.2400396736
 H        -3.4652145900       -6.2034884074       -9.2663451870
 H        -4.6089910010       -6.9619024515      -10.1613702407
 H        -4.4753311446       -7.2780093560       -8.3595969086
 H        -2.1848976831       -0.1478782031      -13.0498784607
 H        -3.1109207133       -0.1894051762      -11.6248013673
 H        -3.8584937730        0.1960816929      -13.1445807092
 H        -4.2021841769       -2.3935940034      -14.8339417324
 H        -3.3339886263       -3.5947376603      -14.0970768538
 H        -2.3794647690       -2.2847047683      -14.9177710641
 H         2.5663505376       -5.5369058486      -14.0428583314
 H         1.4315100360       -5.9320335192      -12.6545318666
 H         3.0440217367       -6.5008836294      -12.6407076550
 H         3.8550413548       -4.8247193132      -10.4734644995
 H         2.1851036549       -4.6547104732      -10.3436467569
 H         3.1841109581       -3.2431284984      -10.3665271492
 H         7.0332295457       -1.9290020367      -10.3215311177
 H         7.6428472881       -0.2490150961      -10.4469853936
 H         8.8241978899       -1.4674154329      -10.0165964566
 H        10.0107217289       -0.4453271370      -12.0892933424
 H         8.4537656421        0.4135925083      -12.4223976007
 H         9.2774278468       -0.5157765668      -13.6497932988
 H        11.9978805477       -5.4053371262      -14.8375820614
 H        13.4409523270       -4.4013131795      -15.4499938478
 H        12.5187580656       -5.2837630112      -16.5716222778
 H        12.5356767582       -2.4800756496      -17.5500860211
 H        12.9583329655       -1.8027880226      -16.0685610760
 H        11.4234314095       -1.4825296903      -16.6748796082
 H         4.1540203978       -4.3518636981      -19.2419099424
 H         4.5786328131       -4.7143689781      -17.4757374390
 H         5.1995380177       -5.7709789379      -18.7637992703
 H         7.2061177358       -2.5070386353      -19.9194065047
 H         5.7039559773       -3.1837366731      -20.5600986957
 H         7.0967461638       -4.0817221752      -20.4248483668
 Na        6.8492436136       -3.8885550249      -14.7468167001
 Na       -7.2765933718       -1.2908372304      -10.0166304713
