232

 C         4.4256997354       -1.5209004991      -18.6634983256
 C         5.4600129947       -2.4797086580      -17.8229920273
 O         5.6472523000       -2.3317182245      -16.6437484525
 C         5.9955444438       -3.6987043747      -18.6380038090
 C         7.2626208212       -4.3104879732      -17.7778621804
 O         7.0147392662       -4.9378450219      -16.7815686180
 C         8.7214411538       -4.0909361544      -18.1389190167
 C         9.7139766599       -4.7030287588      -17.1107637863
 C        10.0095486032       -3.7832355719      -15.9091067576
 O         9.1384219771       -3.3225473011      -15.2767464758
 C        11.5591771305       -3.4263936097      -15.5157101185
 C        11.4918861012       -2.9605330559      -14.0947679810
 O        11.8909885945       -1.8321010778      -13.7599428732
 C        11.0348765225       -3.9379657616      -13.0071038671
 C        10.2601162510       -3.1811048526      -11.9436464049
 C         8.7743441598       -2.9416250365      -12.3111287835
 O         8.0890098792       -3.9231030856      -12.4957103416
 C         8.1541944268       -1.4599994777      -12.0545082456
 C         6.9021720602       -1.5624223618      -12.9272862483
 O         6.9432353541       -1.6601730191      -14.1158116827
 C         5.5530970292       -1.6090521956      -12.2091429172
 C         4.3519225436       -2.1884086802      -13.0114376518
 C         4.1374941433       -3.6633308289      -12.8921133358
 O         4.9192592264       -4.4860183820      -13.3872287861
 C         2.7642630240       -4.1727321056      -12.3285646922
 C         1.6188080695       -3.2721427673      -12.6776815708
 O         1.6524065233       -2.6167791152      -13.6853086908
 C         0.3003690078       -3.4720373166      -11.9214980417
 C        -0.6705644802       -2.3366194491      -12.2114412403
 C        -2.2116836314       -2.8938100573      -12.2746703694
 O        -2.5216030396       -3.9694012287      -11.8744463253
 C        -3.3299171280       -1.9692880870      -12.9278662193
 C        -4.7744269843       -2.2084644706      -12.2467468103
 O        -5.3020354083       -1.3327559619      -11.6137638690
 C        -5.5743120492       -3.4907403248      -12.4301968969
 C        -5.2571051836       -4.7071228001      -11.5189441762
 C        -5.9304029641       -4.5137724492      -10.1608772061
 O        -6.8000929358       -3.6603224440       -9.9432862350
 C        -5.5244028716       -5.3916027967       -8.9155706086
 C        -4.9209021317       -4.3394327850       -7.8436234054
 O        -3.7230360314       -4.2598064296       -7.7484375024
 C        -5.8690718428       -3.4406214782       -7.0360850274
 C        -5.2665174981       -2.4032036540       -6.1141175931
 C        -6.2646978114       -1.9392391891       -5.0028843003
 O        -7.1583724733       -2.6875352610       -4.5418118624
 C        -5.9441824361       -0.5444276061       -4.3550012396
 C        -6.3206249428        0.5978259327       -5.3002909324
 O        -5.4967139834        1.3615716568       -5.7244517100
 C        -7.8439577528        0.8765072938       -5.5353654550
 C        -8.0501491774        1.7903063820       -6.8043052728
 C        -7.4904330487        1.2611080987       -8.1856976354
 O        -6.8238779742        0.2592284932       -8.2618647062
 C        -7.6177749820        2.2239378495       -9.4518762779
 C        -8.4256858068        1.6836297943      -10.7541337997
 O        -8.5203392116        0.4665447269      -10.9640078708
 C        -9.0395029771        2.6687287253      -11.6883213582
 C        -9.7534473043        1.9561481651      -12.9469551014
 C       -10.4411705656        0.6026359365      -12.4175902134
 O       -11.2251879693        0.7955188569      -11.5302412798
 C       -10.2360004922       -0.9284503370      -12.9366769918
 C       -10.0418285354       -1.7847898776      -11.7252000037
 O        -8.9806027187       -2.5105432098      -11.6572469845
 C       -11.0997926379       -1.8314864593      -10.5701640019
 C       -10.5893946944       -2.9414112028       -9.4845903275
 C       -10.0318601985       -2.3405345404       -8.2062903078
 O        -9.0405989136       -1.5904080097       -8.2335465429
 C       -10.7323288148       -2.7287975228       -6.7596343767
 C       -12.3639384296       -2.6942541090       -6.8324846516
 O       -12.9225815471       -2.5171469692       -7.8842349943
 C       -13.1292198638       -2.9601556950       -5.5097278087
 C       -14.2634139742       -1.8502175361       -5.3366604153
 C       -13.7842769719       -0.3765171507       -5.4770511044
 O       -12.7298431945       -0.0739517124       -6.0057296799
 C       -14.6307470407        0.7823114327       -4.9581958630
 C       -13.9547202274        1.5638344527       -3.7979036529
 O       -14.5773032292        1.9413022566       -2.8117467326
 C       -12.4540086567        1.9224787334       -3.9557982853
 C       -11.7488737380        2.1519491155       -2.5797202424
 C       -10.2822875323        2.5517786446       -2.8414091441
 O        -9.7300537770        2.4421461694       -3.9102174119
 C        -9.3917784763        3.1355195949       -1.6493394851
 C       -10.2441901734        4.3836815298       -1.1003208044
 O       -11.0098660008        4.0509853743       -0.2302243949
 C       -10.1165237798        5.8197164918       -1.5894822163
 C        -9.3308906837        2.0943224077       -0.5116176736
 C        -7.9976293142        3.5311165210       -2.1409126284
 C       -14.7591669396        1.8367445360       -6.1378088853
 C       -16.1127447504        0.3073631778       -4.6474112745
 C       -10.3325364065       -4.1244730645       -6.4149194231
 C       -10.3052699960       -1.8295720838       -5.6232695444
 C       -11.5988073224       -1.2741335518      -13.6213022509
 C        -9.1311596152       -1.0148234318      -13.9904460999
 C        -8.0894595675        3.6378203563       -9.0008983944
 C        -6.1538173969        2.2982166104       -9.8969284456
 C        -6.7424328630       -0.5362453911       -3.0405182654
 C        -4.4067013926       -0.6158012976       -3.8972712513
 C        -6.8264465875       -5.9741062328       -8.3402294945
 C        -4.5624806483       -6.4225527990       -9.2550257978
 C        -2.8559250469       -0.4712692334      -12.7445055351
 C        -3.3516086045       -2.3588919710      -14.4264671956
 C         2.2634053527       -5.5366525312      -12.8600391900
 C         2.9155400394       -4.1725214644      -10.8277125129
 C         7.8712177670       -1.2805199739      -10.5701822431
 C         9.0511458549       -0.3617320881      -12.5740642738
 C        12.3555209328       -4.7450518061      -15.7359071611
 C        12.1762346167       -2.2649960572      -16.3840391110
 C         4.8382645990       -4.8408098758      -18.4965180498
 C         6.3542864912       -3.3500757725      -20.0120244339
 H         3.8913992125       -2.2266215967      -19.3141974451
 H         4.9346870969       -0.8112284550      -19.1804342127
 H         3.6850233778       -1.0761272996      -17.9370274342
 H         8.9346401014       -3.0512821472      -18.4854200028
 H         8.8853157449       -4.6861925519      -19.0745672167
 H        10.6316698925       -4.9520102593      -17.6042601124
 H         9.2473977722       -5.6262644782      -16.7508055294
 H        11.9595190790       -4.3030658463      -12.5751517906
 H        10.4699287805       -4.8267686404      -13.3105920213
 H        10.7772527965       -2.2559825104      -11.6239469920
 H        10.0679391679       -3.9111710493      -11.1385365936
 H         5.2805410662       -0.5599515255      -11.9440645751
 H         5.5142024136       -2.2700107263      -11.3890599023
 H         4.3244387015       -1.8585384408      -14.0265832757
 H         3.5306036102       -1.8360984204      -12.4507237588
 H         0.4053853802       -3.5764075215      -10.8182754079
 H        -0.1421829031       -4.3828833681      -12.3386262438
 H        -0.4967057171       -1.9577628018      -13.1946680751
 H        -0.5391963547       -1.4675607172      -11.5925053945
 H        -5.4184676005       -3.9152125536      -13.4082402309
 H        -6.5738726943       -3.2392393287      -12.2793753507
 H        -4.1842679761       -4.9091352236      -11.5713229659
 H        -5.7643544887       -5.5919141237      -11.9347920946
 H        -6.6336853241       -4.1038965437       -6.5445371235
 H        -6.4392751309       -2.8059060877       -7.7822933823
 H        -4.9464387766       -1.5154371991       -6.6784764618
 H        -4.4571422770       -2.9370847123       -5.6956372968
 H        -8.1756482828        1.5517431663       -4.7427498477
 H        -8.4640958536        0.0500576434       -5.7545466134
 H        -7.5369338651        2.7152350854       -6.5078355938
 H        -9.1738342190        2.0090404623       -6.9771506333
 H        -8.3092492535        3.3647997798      -12.0478219440
 H        -9.8483760251        3.2796170304      -11.1236056415
 H        -9.0472389674        1.8926749465      -13.8025601520
 H       -10.5222536657        2.5293348295      -13.4230437067
 H       -12.0190121145       -2.1914813790      -11.0607605596
 H       -11.3831991367       -0.8695477676      -10.0659107010
 H        -9.6452021770       -3.2216065069       -9.9230161247
 H       -11.3213281849       -3.6865663499       -9.4042188813
 H       -12.5070732953       -2.9432794255       -4.5625345679
 H       -13.6927477918       -3.9329428188       -5.6259190128
 H       -14.8182807350       -1.9746989911       -4.3633987425
 H       -15.0500758222       -1.8702338986       -6.0907745988
 H       -12.3113689356        2.8436015430       -4.5327971955
 H       -11.8432378968        1.2181839223       -4.6165508962
 H       -11.8079928866        1.3684342004       -1.8303922029
 H       -12.2650206717        2.9734962619       -2.0480888728
 H       -11.1390687426        6.1528078772       -1.5364087554
 H        -9.7283606246        5.9311551129       -2.5994552728
 H        -9.5089795731        6.2479738535       -0.7508913785
 H        -8.8262273336        1.2508953387       -0.8687763640
 H       -10.2918214589        1.7662891464       -0.2881607218
 H        -8.8064819248        2.5213779008        0.3260921444
 H        -7.5343580963        2.6623474321       -2.6552150527
 H        -7.3189885152        3.9029037688       -1.3020710001
 H        -8.0295349438        4.3944794566       -2.8623612193
 H       -15.0960211585        1.2875487141       -6.9788126620
 H       -13.7313238912        2.2945781238       -6.3476023219
 H       -15.4936783218        2.6054945721       -5.8655969875
 H       -16.0813142584       -0.6943352925       -4.2699443140
 H       -16.6709426923        0.3883176270       -5.5796950394
 H       -16.4767220748        0.9456739704       -3.8155947384
 H       -10.6059259640       -4.7905223329       -7.2401676686
 H       -10.7525409943       -4.5465105739       -5.4254810672
 H        -9.2162068667       -4.1500083468       -6.3404453777
 H       -11.0982447558       -1.7143421953       -4.9296412861
 H       -10.1701196069       -0.8278438772       -5.9557705346
 H        -9.5099752554       -2.2048932560       -5.0580875602
 H       -11.5212385911       -0.6975224686      -14.6080618069
 H       -12.4030801122       -0.9033895940      -12.9960836646
 H       -11.7421627064       -2.3464597221      -13.8152191341
 H        -8.0927915894       -0.8547429614      -13.6842485733
 H        -9.3642279992       -0.2676093723      -14.7220192537
 H        -9.0294802112       -1.9893003027      -14.4888294352
 H        -7.8879213055        4.3531021774       -9.7853495434
 H        -7.5433693715        3.9346036788       -8.0300939326
 H        -9.1097369328        3.6036541937       -8.7182624343
 H        -5.7819351375        1.2615962649      -10.0529364801
 H        -5.3720055660        2.7411176689       -9.2869397691
 H        -6.0086316642        2.7768607341      -10.8342962920
 H        -6.5777976639        0.3746761820       -2.5792395337
 H        -6.4023289963       -1.2687602359       -2.3549885825
 H        -7.9057604739       -0.6779667758       -3.2185805902
 H        -4.2153047958        0.2122350406       -3.2946791515
 H        -3.5672638581       -0.5556458949       -4.5812171692
 H        -4.2885583580       -1.4108541453       -3.2471429269
 H        -6.5315604447       -6.7491268835       -7.5874016632
 H        -7.4228515762       -6.4281147254       -9.1361833674
 H        -7.4542634787       -5.1888875051       -7.9020769901
 H        -3.5698108881       -5.9845985498       -9.4074804659
 H        -4.7199613190       -6.9118404853      -10.1420216772
 H        -4.5336289604       -6.9987963307       -8.2977135119
 H        -1.8261551128       -0.1460940859      -12.9877910385
 H        -3.0438376542       -0.1315254999      -11.7911976297
 H        -3.4757115484        0.2266289078      -13.3373283566
 H        -4.2024796559       -2.0869215713      -14.9658131492
 H        -3.3156010131       -3.4479896740      -14.5250565400
 H        -2.5220131864       -1.8352601961      -14.8315630567
 H         2.2494435553       -5.6416401274      -13.9626614076
 H         1.3060767482       -5.8323776611      -12.3855514102
 H         2.9406826751       -6.3535163168      -12.5026294503
 H         3.7875769297       -4.7301535382      -10.5105418052
 H         2.0841370258       -4.7086316140      -10.3874075479
 H         2.9011356848       -3.1711982226      -10.3491462609
 H         7.2032230838       -2.0802716839      -10.1554855544
 H         7.3134584301       -0.3015201900      -10.4579268424
 H         8.8361877794       -1.2580456856      -10.0614340084
 H         9.8670753523       -0.3141439204      -11.9334617213
 H         8.5430496120        0.6627558917      -12.6204618829
 H         9.4775046902       -0.5402569335      -13.5369626244
 H        11.7046011968       -5.5934870793      -15.3498593127
 H        13.2658601579       -4.6691009816      -15.2228955058
 H        12.6092729332       -4.8836248363      -16.8093041477
 H        12.3596624634       -2.4957024124      -17.4245781553
 H        13.1665605205       -1.8899112718      -16.0310989951
 H        11.5939290245       -1.3731216959      -16.4989992905
 H         3.8727058056       -4.4881955247      -18.9640119270
 H         4.6874932252       -5.0833869486      -17.4055263650
 H         5.1028972382       -5.8619705669      -19.0236573155
 H         6.8530197476       -2.4295263851      -20.0451665411
 H         5.5499593497       -3.4388805048      -20.7226071635
 H         7.0888852482       -4.0345724159      -20.4183792771
 Na        6.9405918019       -3.7531429118      -14.7104571904
 Na       -7.3361181756       -1.3462058050      -10.0527456271
