232

 C         4.4873753859       -1.7254990331      -18.8037675541
 C         5.1986709629       -2.7481616573      -18.0073817912
 O         5.2702408670       -2.6090207346      -16.7677496545
 C         5.7335540805       -4.0762875532      -18.6104198459
 C         6.8921471605       -4.5444084263      -17.7346227196
 O         6.7513002723       -5.2768954606      -16.7786778960
 C         8.3036664500       -3.9867769721      -18.1227718976
 C         9.4828731596       -4.6202793564      -17.2954449782
 C         9.7565244128       -3.7831813510      -16.1020318279
 O         8.8015667607       -3.2535357794      -15.4465097916
 C        11.2013637169       -3.5514036369      -15.8010023388
 C        11.5849147691       -2.9713691529      -14.3068786173
 O        12.1151698568       -1.9281609298      -14.1906321965
 C        11.1101135579       -3.6991745414      -13.0271009976
 C        10.2194584036       -2.8477287543      -12.0500334215
 C         8.8236458162       -2.5918091296      -12.3878844486
 O         8.2000716355       -3.4097342759      -13.0454829307
 C         8.1094784554       -1.2662343598      -11.8797127168
 C         6.6594021771       -1.3081110399      -12.3733294712
 O         6.3587307937       -0.9739112329      -13.5704206097
 C         5.6085784323       -1.8346499735      -11.3546626014
 C         4.2553998283       -1.8852653831      -12.0764620838
 C         4.0723851657       -3.3014433295      -12.7141580255
 O         4.7842376381       -3.8639808168      -13.4913820273
 C         2.7729551312       -4.0484505284      -12.1285451737
 C         1.5813391808       -3.2841364467      -12.6734246496
 O         1.7465480264       -2.7543656983      -13.7709830311
 C         0.1344855715       -3.3743380596      -12.0513239385
 C        -0.8256038333       -2.3058351314      -12.5261847235
 C        -2.2690313160       -2.8201896573      -12.7285351941
 O        -2.5675642724       -3.9822948314      -13.0120650458
 C        -3.4879724113       -1.7105528637      -12.8363069589
 C        -4.7299608930       -2.1265995290      -11.9558495194
 O        -5.1146736241       -1.3946861980      -11.0310299385
 C        -5.5572821013       -3.3825413523      -12.3414022705
 C        -5.1966214549       -4.6072820262      -11.4194506202
 C        -5.9055822236       -4.5936790034      -10.0183146933
 O        -6.7848272606       -3.7646655869       -9.8870479753
 C        -5.6259994046       -5.4848779219       -8.7804444518
 C        -4.9674952163       -4.5802895478       -7.5504415648
 O        -3.8139365041       -4.7356691752       -7.2814906130
 C        -5.8922002120       -3.4807828608       -6.9261841666
 C        -5.1748876157       -2.4956531460       -6.0466380872
 C        -6.1326360131       -1.9832385201       -4.9160581447
 O        -7.0155027164       -2.7174064294       -4.6345890572
 C        -5.9650383724       -0.5708693242       -4.2686803110
 C        -6.1778114970        0.4334256987       -5.4317644586
 O        -5.2556769693        0.7422675402       -6.1836797221
 C        -7.5682300410        0.6242527000       -6.0000320105
 C        -7.6960936342        1.9059921069       -6.8532174637
 C        -7.0916201745        1.6519317625       -8.1743946626
 O        -6.3887885477        0.6575528688       -8.4133672016
 C        -7.4579982100        2.6998936610       -9.3071865593
 C        -8.3667652095        1.9296709849      -10.4160938546
 O        -8.1851833144        0.7417126041      -10.5111107921
 C        -9.3692536351        2.6785213118      -11.3825537250
 C        -9.7033764070        1.7106722997      -12.5387465105
 C       -10.6020505315        0.5280336054      -12.1788507869
 O       -11.5009769065        0.7224168332      -11.3788017700
 C       -10.6224137248       -0.8926793216      -12.7516934808
 C        -9.9274609942       -1.8460946252      -11.7136906902
 O        -8.7567807284       -2.0521896895      -11.8046246834
 C       -10.7475975284       -2.5825859095      -10.7367738393
 C       -10.1513305632       -3.4933039013       -9.6804807305
 C        -9.8672620711       -2.6860073896       -8.3856832895
 O        -9.0499873377       -1.7744340928       -8.3532554777
 C       -10.5884498066       -3.1965331348       -7.1353997850
 C       -12.1687905211       -2.7253119892       -7.0926343462
 O       -12.6018120434       -2.0731024378       -8.0151298097
 C       -12.9003714536       -2.9582689305       -5.8103566541
 C       -14.0272687548       -1.9790582356       -5.6435189256
 C       -13.4926755502       -0.5352590822       -5.3158490461
 O       -12.3001349180       -0.3263363137       -5.5063987819
 C       -14.4179755068        0.6782792965       -5.1274522197
 C       -13.8253718449        1.3845257376       -3.7417279537
 O       -14.4753937887        1.3861353950       -2.7248227822
 C       -12.4970379236        2.1050896689       -3.9869048238
 C       -11.6304079292        2.1798874092       -2.7223619576
 C       -10.2047249814        2.5759089432       -2.9276124010
 O        -9.6728054693        2.4323606516       -4.0122663383
 C        -9.4222571149        3.0667670027       -1.6282572390
 C       -10.0805732496        4.5107876328       -1.1024590012
 O       -10.9268488709        4.5080955194       -0.2057091547
 C        -9.7291386494        5.8164845583       -1.8507965588
 C        -9.7264117319        2.0742245321       -0.4425441419
 C        -7.9112871539        3.1138144979       -1.8457819463
 C       -14.2581287286        1.7284362939       -6.2857997895
 C       -15.8867129035        0.4467929047       -4.9245719682
 C       -10.6196794593       -4.7708043974       -6.9261837434
 C        -9.9786480620       -2.5010896844       -5.8199202771
 C       -12.1081919384       -1.5157928286      -12.9976994599
 C        -9.8225299303       -1.0927718338      -14.1159983587
 C        -8.0097637711        4.0572126682       -8.8574458333
 C        -6.1403307789        2.9263826217      -10.1214956436
 C        -7.0026099991       -0.2844194531       -3.1511194777
 C        -4.4517440387       -0.3517326101       -3.8237277116
 C        -6.9468902597       -6.1272618900       -8.2365956868
 C        -4.6457088906       -6.6139927196       -9.2649894699
 C        -3.1139744056       -0.2770585309      -12.4801743283
 C        -3.7903978920       -1.6408189971      -14.3952426659
 C         2.8708854437       -5.5040770732      -12.5743084071
 C         2.9486965163       -4.1275356982      -10.5608441612
 C         8.3234898563       -1.1060179765      -10.3409524246
 C         8.8649194259       -0.1018076455      -12.6568940005
 C        12.0159860715       -4.8694162183      -15.7260555545
 C        11.8702702796       -2.5650575432      -16.7050841970
 C         4.6018010745       -5.1128958755      -18.6513881825
 C         6.1777965316       -3.8612828619      -20.1878306569
 H         3.7615498885       -2.2768608004      -19.3327581767
 H         5.1842837143       -1.3682000371      -19.6578965994
 H         4.1468505447       -0.9783010705      -18.1807963237
 H         8.3505609569       -2.8847651134      -17.9359973684
 H         8.5347771449       -4.1826358198      -19.1721045378
 H        10.3719417505       -4.9105176964      -17.8254851775
 H         9.1777658502       -5.5387190292      -16.7903711643
 H        12.0043105493       -4.0478069365      -12.5004466681
 H        10.6150873519       -4.6097365116      -13.3308853118
 H        10.7435898250       -1.9021792707      -11.8957709142
 H        10.1720916316       -3.3156647784      -11.0365364948
 H         5.4950684376       -1.0030259375      -10.6247301497
 H         5.8510315531       -2.7035424095      -10.7143879565
 H         4.3565005633       -1.2105417479      -12.8675300587
 H         3.4851125452       -1.5471354891      -11.4005685744
 H         0.1250944541       -3.4054059898      -10.9974771079
 H        -0.2124401375       -4.2986988780      -12.5564404502
 H        -0.4696354532       -2.1047457434      -13.5064265445
 H        -0.8122961138       -1.4246625365      -11.8592847568
 H        -5.4018068295       -3.6694495357      -13.3510105650
 H        -6.5792710986       -3.2457669118      -12.1257294054
 H        -4.1513642774       -4.5328199724      -11.1399759043
 H        -5.4185359759       -5.5479756539      -11.9233678151
 H        -6.5733568313       -4.0094035943       -6.2115711914
 H        -6.5198567306       -2.9437064436       -7.7134524929
 H        -4.8037231653       -1.6727052828       -6.6803758623
 H        -4.2790405656       -2.8544825934       -5.5906993623
 H        -8.4054090445        0.7273106336       -5.3421706895
 H        -7.8717991460       -0.1590327096       -6.6637477207
 H        -7.1574670279        2.7112809413       -6.3060745408
 H        -8.7011110111        2.3513295495       -6.9038582228
 H        -8.9103227602        3.6460676623      -11.8551922339
 H       -10.2371282611        2.9240619747      -10.7734014316
 H        -8.8022539255        1.5016844092      -13.0670127906
 H       -10.2850779959        2.1979929329      -13.3758539478
 H       -11.5798418109       -3.1039190984      -11.2775462404
 H       -11.1676460349       -1.7236388114      -10.1975825998
 H        -9.1767549307       -3.8389939475       -9.9621459913
 H       -10.7950968113       -4.3590871058       -9.5567556905
 H       -12.2047575437       -2.9429203186       -4.9461797111
 H       -13.4137025049       -4.0011209774       -5.7769835830
 H       -14.6487326105       -2.2301871640       -4.7510785984
 H       -14.6718418039       -2.0096615284       -6.5248221848
 H       -12.8005030754        3.1459080253       -4.2135677841
 H       -12.0415967714        1.5951848806       -4.8614184714
 H       -11.5751751933        1.1730097767       -2.2253342268
 H       -12.2032330403        2.7894669355       -2.0222333883
 H        -9.9951025615        6.5396410169       -1.0663685764
 H       -10.2905716742        5.9020195580       -2.8021504246
 H        -8.6706954463        5.8380973644       -1.9321024384
 H        -9.7168764596        1.0431118264       -0.6980494791
 H       -10.6802382847        2.4007656635       -0.1014414369
 H        -9.0926624003        2.2799954213        0.3775705942
 H        -7.3968121923        2.2180493647       -2.2213781019
 H        -7.3057191418        3.3824624786       -0.9885706530
 H        -7.7680599087        3.7356281704       -2.7536921836
 H       -14.6924666269        1.2668126957       -7.2491521820
 H       -13.2297041681        1.9297985642       -6.4986328650
 H       -14.8261808131        2.5807085374       -5.9703763196
 H       -15.9638501760       -0.4265116826       -4.2714763458
 H       -16.3275158529        0.2684149848       -5.8918028576
 H       -16.2218621770        1.2920588161       -4.3894027145
 H       -10.9748031523       -5.4780201689       -7.7496076729
 H       -11.2068188468       -5.0041702886       -6.0479034757
 H        -9.5395244942       -5.0855455833       -6.8399178488
 H       -10.2469731980       -2.9943340100       -4.9399536107
 H       -10.1830047458       -1.4888040311       -5.8425903585
 H        -8.9014438867       -2.5939613468       -5.8171251151
 H       -12.3920405030       -1.0486431068      -13.9305573783
 H       -12.8199245526       -1.1402270072      -12.2225177331
 H       -12.0294903345       -2.6173647501      -13.0923371271
 H        -8.7732986983       -1.1679935599      -13.9058623856
 H        -9.8617318430       -0.1476108096      -14.7517242072
 H       -10.1835955382       -1.9094347887      -14.7136588157
 H        -7.9892191127        4.8826889529       -9.6235634592
 H        -7.4736053165        4.5123056534       -8.1262027790
 H        -9.0314034414        3.9005096660       -8.5281468996
 H        -5.5092642449        2.1421657478      -10.4313720522
 H        -5.4337772169        3.6022309943       -9.6458534262
 H        -6.4495552323        3.3923551236      -11.0808311767
 H        -6.4962665121        0.3993936828       -2.3104473765
 H        -7.3131428623       -1.3070948060       -2.6815290005
 H        -7.8791391347        0.2511148991       -3.3924438053
 H        -4.1853517221        0.3129151190       -3.0233630017
 H        -3.7829519118       -0.0700531726       -4.5812365335
 H        -4.1024767240       -1.3155512684       -3.4870070146
 H        -6.8879660354       -6.4113421457       -7.1928067856
 H        -7.1487566612       -6.9172540677       -8.9767360534
 H        -7.6674171677       -5.3512878770       -8.2166104774
 H        -3.6713924851       -6.1843889855       -9.4264135120
 H        -5.0620810372       -7.0078795108      -10.2754989854
 H        -4.6579326711       -7.4755932052       -8.6782827104
 H        -2.3208471406        0.1831310271      -13.0504136946
 H        -2.8748168139       -0.1094665764      -11.3786513474
 H        -3.9454210240        0.3667595570      -12.5888159679
 H        -4.6432536343       -1.0278304448      -14.7046800292
 H        -3.8028322129       -2.5932230413      -14.9285364616
 H        -2.9536881612       -1.0831346064      -14.7715633394
 H         2.8929237148       -5.6160097514      -13.6725632241
 H         2.0134077510       -6.1197523163      -12.2095158662
 H         3.8383140373       -5.9328370961      -12.1689990471
 H         3.8742116616       -4.5878489178      -10.3055354834
 H         2.1381066270       -4.6233906426      -10.0858674307
 H         2.8931095213       -3.1429967100      -10.1544589694
 H         7.6115045185       -1.7035917284       -9.7981904517
 H         8.1345909090       -0.0347233724      -10.0910268934
 H         9.3080529795       -1.4604393580       -9.9252291207
 H         9.9510110002       -0.3553243907      -12.7139717658
 H         8.7739625480        0.8791648104      -12.3661756449
 H         8.5202250749       -0.1775370949      -13.7196027420
 H        12.0999906170       -5.3103492076      -14.7592812464
 H        13.1133828593       -4.6184567630      -15.8502584035
 H        11.6480718040       -5.5661325947      -16.4117269168
 H        11.8562059534       -2.7270559452      -17.7631174585
 H        12.7977021133       -2.2638824726      -16.3297913504
 H        11.4374318081       -1.5691949108      -16.7427027890
 H         3.8425735004       -4.7700515889      -19.4584561013
 H         3.9814130237       -5.3626819195      -17.7014238724
 H         5.0886581885       -6.0515130090      -18.9768938326
 H         6.6146098784       -2.8950968731      -20.4582071860
 H         5.3690701256       -3.8065949442      -20.8731159309
 H         6.7843888818       -4.6229107560      -20.5682443424
 Na        6.5988513424       -3.2661363072      -14.9030162911
 Na       -7.0413532041       -1.3593704746       -9.7033543021
