232

 C         4.3896467883       -1.7624616964      -19.0085385332
 C         5.0813119144       -2.7724182283      -18.0193611471
 O         5.0567942569       -2.5337098892      -16.8348113047
 C         5.5877479193       -4.1194774387      -18.6714429535
 C         6.8578008366       -4.6663464739      -17.7838753540
 O         6.6908888789       -5.3343250518      -16.7938436864
 C         8.2855181568       -4.2218396029      -18.2447454615
 C         9.3135419082       -4.6628486597      -17.1958538685
 C         9.7674386035       -3.6274032339      -16.1337260903
 O         8.9999260523       -2.9276514956      -15.5599993285
 C        11.3211826988       -3.6441508163      -15.8055884847
 C        11.5365768178       -2.9320487623      -14.4104219048
 O        11.8628594674       -1.7292445202      -14.1731366092
 C        10.8314985254       -3.7329038598      -13.2206235769
 C        10.2358663314       -2.8600773832      -12.1601034562
 C         8.7432076293       -2.4628607162      -12.4344657798
 O         8.0997260506       -3.3776997143      -12.9513351160
 C         8.1983324023       -1.1000232540      -11.9998454076
 C         6.7147959261       -1.2754808369      -12.3534805137
 O         6.3360066642       -0.9773983793      -13.4347289116
 C         5.7538166416       -1.7223713980      -11.1622967523
 C         4.3137152965       -1.8588647930      -11.7323312593
 C         3.9797245151       -3.1936398093      -12.4688491684
 O         4.6619014028       -3.5130932014      -13.4471282771
 C         2.6816955181       -4.0226666705      -12.0586277904
 C         1.4638248494       -3.2532020640      -12.7757498977
 O         1.6319473094       -2.7521449515      -13.8366829455
 C         0.0987122726       -3.4938847178      -12.1248825303
 C        -0.8339688715       -2.2506892139      -12.5264364417
 C        -2.3388173104       -2.7512025522      -12.9066301483
 O        -2.5659566917       -3.8919638510      -13.2705970015
 C        -3.4301772989       -1.6931228904      -12.7789643051
 C        -4.5983111280       -2.1693525187      -11.8157341983
 O        -5.0172403581       -1.4354847642      -10.9868820118
 C        -5.4201742989       -3.3910380429      -12.1532003442
 C        -5.2242814981       -4.6238419588      -11.1811959453
 C        -6.0187941523       -4.5429312767       -9.8838566612
 O        -6.9151838036       -3.7277475872       -9.7402210787
 C        -5.5346408049       -5.4446341742       -8.7103987282
 C        -4.8802360305       -4.6431843778       -7.5947122327
 O        -3.7227074165       -4.8768367794       -7.2470012933
 C        -5.8963754114       -3.7463035401       -6.8497180461
 C        -5.2000683615       -2.6670733437       -5.9868845064
 C        -6.1347820245       -2.1362472115       -4.9149460388
 O        -7.1189909721       -2.7760165386       -4.5163340815
 C        -5.8531353356       -0.6906593740       -4.2337809816
 C        -6.0711428545        0.3801153526       -5.4540884635
 O        -5.1182749619        0.6887354777       -6.1008276782
 C        -7.4620145083        0.8396186487       -5.7840783760
 C        -7.6552857733        1.9017571238       -6.9501829518
 C        -7.0216832212        1.7153633076       -8.3661719144
 O        -6.1496071569        0.9275283868       -8.5635816338
 C        -7.4318681213        2.7247236589       -9.5434891385
 C        -8.2957790561        1.7807675864      -10.5778038420
 O        -8.2342967754        0.5768217847      -10.6543868811
 C        -9.3993627652        2.5429888248      -11.3579717544
 C        -9.9477205922        1.7304228376      -12.5009710733
 C       -10.7683549470        0.5020475143      -12.0057847992
 O       -11.4913969303        0.6205466567      -11.0592223214
 C       -10.7502698371       -0.7765890972      -12.8247899358
 C        -9.9280817411       -1.8070169617      -11.8047740501
 O        -8.7044058132       -1.7886425381      -11.7377398079
 C       -10.7314917461       -2.5667959662      -10.7417950626
 C        -9.8574884393       -3.5122021596       -9.8683143521
 C        -9.7782034393       -2.8858371853       -8.4541812868
 O        -8.8575961393       -2.0943504249       -8.3233216312
 C       -10.5320655041       -3.3548019499       -7.1316609317
 C       -11.9778789315       -2.6990365333       -7.2079864413
 O       -12.3768827619       -1.9856712296       -8.1014078195
 C       -12.9900819930       -2.9952225053       -6.0911047184
 C       -14.0702004605       -1.8868417359       -5.7157666244
 C       -13.3868500462       -0.5252948245       -5.4277905081
 O       -12.1901364868       -0.4722616165       -5.2647792804
 C       -14.2374506016        0.7373585367       -5.2035971501
 C       -13.7357480285        1.2901712901       -3.8193352047
 O       -14.2532139537        1.0534463508       -2.7645828372
 C       -12.4202916997        2.1100688211       -4.0074387204
 C       -11.6679849435        2.3290489892       -2.6792917134
 C       -10.1910497658        2.6841549059       -2.8235548608
 O        -9.6087915609        2.5741662559       -3.8813899372
 C        -9.4731413822        3.1034075795       -1.5319077045
 C       -10.0617343582        4.5024145863       -1.1742782044
 O       -10.8993557818        4.6851202578       -0.3692314654
 C        -9.5519576574        5.6648939860       -2.0534160438
 C        -9.9154514446        1.9374780500       -0.4633290068
 C        -7.9401774920        3.1624953408       -1.6474908261
 C       -14.0971149226        1.7879445545       -6.3641773738
 C       -15.7669668720        0.3479913948       -5.0394857792
 C       -10.5895508801       -4.9042316022       -7.0888364927
 C        -9.7067406043       -2.8296073718       -5.8755594727
 C       -12.2190672940       -1.2211343656      -12.8942229272
 C       -10.0870613712       -0.9731966785      -14.2491996951
 C        -8.1798387257        3.9117416860       -8.9890576428
 C        -6.1661772368        3.0935556211      -10.3037014285
 C        -6.7904129433       -0.5593584244       -3.0619586307
 C        -4.3661289986       -0.5799745357       -3.7840968701
 C        -6.9255584695       -6.0728498756       -8.1479845196
 C        -4.5533409563       -6.6521609949       -9.0223142115
 C        -2.8644425027       -0.3266961451      -12.1670130479
 C        -4.2233449433       -1.4907143027      -14.1233414620
 C         2.6604627819       -5.4852523128      -12.6306322237
 C         2.5544203760       -4.0249397776      -10.5271961452
 C         8.5460559493       -1.0411888238      -10.4413011015
 C         8.9563261980        0.0945424487      -12.7185437700
 C        12.0552605591       -5.0070871675      -15.7593851401
 C        11.8574340877       -2.7871435910      -16.9241495787
 C         4.4466457975       -5.3110957367      -18.4573647493
 C         5.9226315438       -3.9239885969      -20.0893416127
 H         3.7667091294       -2.3702314544      -19.7086751730
 H         5.0003952566       -1.2461438295      -19.6494116818
 H         3.8200684827       -1.1059955528      -18.2611078966
 H         8.3819488072       -3.1708857513      -18.3415592592
 H         8.5565387367       -4.7294209404      -19.1654420208
 H        10.2137148708       -5.0940942222      -17.6525612490
 H         8.9550505452       -5.5148589038      -16.6106158602
 H        11.6344258496       -4.4058878532      -12.8915767729
 H        10.0217567486       -4.4195006370      -13.5460072658
 H        10.9282244451       -2.1044533275      -11.7806151522
 H        10.0711926783       -3.5293973123      -11.3268888315
 H         5.9334994647       -1.0008042045      -10.3053963326
 H         6.1327563094       -2.6726106852      -10.6801199545
 H         4.2553854741       -1.0273889428      -12.5680373450
 H         3.5733995609       -1.6295877193      -10.9104383723
 H         0.1064570607       -3.5876111296      -11.0107179152
 H        -0.2723506245       -4.3609757799      -12.6361051234
 H        -0.3759523429       -1.8917644198      -13.5157102122
 H        -0.7366329577       -1.5637648198      -11.6948940191
 H        -5.2265569564       -3.8119317628      -13.1813604381
 H        -6.4833563685       -3.0014211720      -12.0712870583
 H        -4.1955721408       -4.5967665631      -10.8370885806
 H        -5.4303134457       -5.5774582507      -11.6423385835
 H        -6.5626353959       -4.2287253193       -6.1482900814
 H        -6.4034546009       -3.2897891949       -7.6569519559
 H        -4.8202817916       -1.8152034969       -6.5660908526
 H        -4.2457138248       -2.9083221375       -5.4423746187
 H        -8.0688244740        1.1888516335       -4.9125629391
 H        -8.1827368730        0.0368966559       -6.1034843726
 H        -7.4134168926        2.8234076166       -6.5220505500
 H        -8.7150828846        2.1079680219       -7.1218339101
 H        -9.0009656025        3.4112802911      -11.7301875296
 H       -10.2472058562        2.7670720892      -10.6694866084
 H        -9.1134512404        1.3315385776      -13.1550552763
 H       -10.5269907600        2.3512132401      -13.1591246562
 H       -11.4286105930       -3.1680303594      -11.3101103417
 H       -11.3113130271       -1.9464909723      -10.0125376162
 H        -8.8091797440       -3.9033301712      -10.1583493838
 H       -10.4710549619       -4.4471211998       -9.8181268085
 H       -12.4575060700       -3.1785523370       -5.1776303459
 H       -13.4428232759       -3.8980192770       -6.2897903688
 H       -14.6916143773       -2.1917452948       -4.9013116597
 H       -14.6478157012       -1.5908339677       -6.5732090085
 H       -12.5954598327        3.0670096367       -4.4920768596
 H       -11.7626973091        1.4330246683       -4.5431523563
 H       -11.6275827207        1.3001780894       -2.2600595333
 H       -12.2594592278        2.9728538555       -1.9624784047
 H        -8.9025938673        6.3548445574       -1.5159388116
 H       -10.5368070867        6.0159632321       -2.3609474232
 H        -9.0631770252        5.2247899931       -2.9799740607
 H        -9.5938440125        1.0227373381       -0.9235871715
 H       -10.9584884485        1.9648032597       -0.1981086989
 H        -9.3856404003        2.0316983425        0.5137485661
 H        -7.4888994707        2.3146300728       -2.1248197486
 H        -7.3913847137        3.1669899200       -0.6884854194
 H        -7.6395104259        3.9229475053       -2.3204737610
 H       -14.5174846002        1.3451873947       -7.1923202850
 H       -13.0241673936        2.0099920157       -6.5772104842
 H       -14.6770640134        2.6724644984       -6.0865607009
 H       -15.8028708976       -0.5739803204       -4.4452449299
 H       -16.1309101444        0.1678590754       -6.1021095975
 H       -16.2434960981        1.2268618086       -4.4878067629
 H       -11.0765450719       -5.1728302649       -7.9825732591
 H       -11.2071805474       -5.3484703796       -6.2791090299
 H        -9.6517734391       -5.4021546446       -7.1270836635
 H       -10.1063053595       -3.1366921902       -4.8679833802
 H        -9.5400811408       -1.7200544771       -6.0322874861
 H        -8.6663910472       -3.2109167484       -5.9919310056
 H       -12.8037300082       -0.5024937247      -13.5182722568
 H       -12.5841005994       -1.0948166232      -11.9073555597
 H       -12.1994378225       -2.2508543555      -13.2143597996
 H        -9.0314579751       -0.8597814881      -14.2882369335
 H       -10.5135748482       -0.2745182784      -14.9627206317
 H       -10.4182893006       -1.9345826517      -14.5975023360
 H        -8.4533821151        4.5056305002       -9.8594420245
 H        -7.4936938231        4.6271380824       -8.4071924443
 H        -9.1646963029        3.8363237311       -8.4997797754
 H        -5.5088137912        2.2539044167      -10.7102754359
 H        -5.4353933132        3.7063632611       -9.6972257871
 H        -6.3232813193        3.6310279799      -11.2470337828
 H        -6.4799655741       -0.9293951174       -2.1260866491
 H        -7.7250509252       -0.9802636071       -3.3456758972
 H        -6.9660798116        0.5345110894       -2.9073473764
 H        -4.0913952026        0.4575853300       -3.8692438235
 H        -3.6034744465       -1.1369421264       -4.4454767968
 H        -4.0429742996       -0.8412246986       -2.7958897918
 H        -6.7274669201       -6.7017805689       -7.2499484483
 H        -7.3909878444       -6.5867713504       -8.9726818606
 H        -7.4619622474       -5.2308188588       -7.6826036416
 H        -3.6099401711       -6.2394892954       -9.4593522799
 H        -5.0746000125       -7.3939265135       -9.5568891062
 H        -4.3156762040       -7.2693514603       -8.0767700576
 H        -1.9704576845        0.0899247405      -12.6794324234
 H        -2.5653770697       -0.4998310668      -11.1861016510
 H        -3.6248702831        0.5022386595      -12.0614946297
 H        -5.1773756644       -1.0887189367      -13.8205690701
 H        -4.3382187304       -2.5220136377      -14.6333648386
 H        -3.7743828074       -0.9022067627      -14.9610290414
 H         2.9862548451       -5.5051978497      -13.6688471201
 H         1.6345755501       -5.8278266990      -12.6824239522
 H         3.2463017337       -6.1803389084      -12.0528805792
 H         3.5876210454       -3.9809232320      -10.0850808271
 H         2.0382245635       -4.9518398773      -10.1555119635
 H         1.9803297650       -3.1397458715      -10.1183694608
 H         8.5064091012       -2.0648979434      -10.0081184565
 H         7.9911790134       -0.3426462788       -9.7557682784
 H         9.5904720840       -0.7727644486      -10.3601297998
 H        10.0068401515        0.0846732790      -12.6657200636
 H         8.6386585577        1.0763125630      -12.2373351545
 H         8.6201579159        0.1216218070      -13.7479760336
 H        11.8558336746       -5.5371556308      -14.7918180572
 H        13.0894256191       -4.8811845015      -15.7190194813
 H        11.7598152792       -5.7199877670      -16.5667284308
 H        12.0684528464       -3.3147189360      -17.8242688247
 H        12.8398079350       -2.2002322882      -16.6696235539
 H        11.3340330805       -1.9585367326      -17.3352036720
 H         3.5219692810       -5.2213860211      -18.8427613044
 H         4.3611830014       -5.3401188401      -17.4135747649
 H         4.8707255219       -6.2714924415      -18.6942242111
 H         6.6818381745       -3.1344477779      -20.2109390964
 H         5.2381008652       -3.4546451944      -20.8374061097
 H         6.3410538160       -4.8716605808      -20.5509485813
 Na        6.5523359550       -2.8787915285      -14.8483540983
 Na       -7.1443785236       -1.1941997639       -9.7930291946
