232

 C         3.6656226767       -2.0528538440      -18.5834428334
 C         4.7606002173       -2.6840925540      -17.7700108335
 O         5.2348241974       -1.9392156411      -16.8984343061
 C         5.2204458616       -4.1635949261      -17.9733224626
 C         6.5150559154       -4.5440769303      -17.2351815254
 O         6.5607081355       -4.6551317871      -16.0389820811
 C         7.8278405511       -4.8612989079      -18.1455465060
 C         9.0214855818       -5.1207217827      -17.1512569169
 C         9.2181067984       -3.7667771391      -16.4747021097
 O         8.4303522872       -2.8722237830      -16.3286874550
 C        10.7553278863       -3.6559661655      -15.9143066771
 C        10.8498259239       -2.8559207852      -14.5609798845
 O        10.6943549391       -1.6526440036      -14.6604068436
 C        10.9434992026       -3.5180058184      -13.1433331487
 C        10.0871783761       -2.7990854710      -12.1347177837
 C         8.6996363407       -2.4365904943      -12.6697431909
 O         8.0841290108       -3.1946739817      -13.4406970425
 C         8.0955899391       -1.0248957995      -12.3274886014
 C         6.5661255139       -1.1460480044      -12.4720192139
 O         6.1070076446       -1.0205721670      -13.5738298383
 C         5.6465140373       -1.4323246127      -11.3351656805
 C         4.2312592550       -1.6021207831      -11.8011840587
 C         3.9607474621       -2.9399859131      -12.5259211428
 O         4.7203926634       -3.4666567068      -13.3047862457
 C         2.6019885840       -3.6455964720      -12.3127396735
 C         1.4404863675       -2.7030539122      -13.1195185590
 O         1.6207866759       -1.5119632689      -13.3244563071
 C         0.0153831376       -3.2494187133      -13.1511153793
 C        -0.8815130462       -2.2570242990      -12.4293358573
 C        -2.3017182231       -2.4272940887      -12.8677529229
 O        -2.5879253427       -3.3919558578      -13.5971486095
 C        -3.3814483995       -1.4849717479      -12.3906520952
 C        -4.6019636646       -2.1359652924      -11.5403148473
 O        -5.1325019796       -1.4016693042      -10.7180082179
 C        -4.9932959969       -3.5620057311      -11.8311934991
 C        -4.7103109710       -4.5365491400      -10.7367673663
 C        -5.7350222424       -4.7027943120       -9.5711063420
 O        -6.6979529963       -3.9616430155       -9.4963557216
 C        -5.4087656738       -5.6161751888       -8.4139659271
 C        -4.7541653772       -4.7662449306       -7.3128988289
 O        -3.5694991356       -4.7051448276       -7.1859442012
 C        -5.6035459521       -4.1532670777       -6.1672859470
 C        -4.9663687029       -2.8909078539       -5.6211850548
 C        -5.9011132096       -2.1935311228       -4.6911515930
 O        -7.0118221463       -2.5291911089       -4.3888672724
 C        -5.3557801357       -0.7409793503       -4.1185893439
 C        -5.3827148674        0.2008208990       -5.3599043044
 O        -4.3440209759        0.8155963329       -5.6556248107
 C        -6.6745473863        0.1947336155       -6.1258453956
 C        -6.9980031482        1.4994488341       -6.9350461386
 C        -7.3668724935        1.1204079919       -8.4249362837
 O        -7.4379020660       -0.0487322861       -8.7387986017
 C        -7.5190762153        2.3844931907       -9.5179805758
 C        -8.3866768276        1.9323520602      -10.6810499271
 O        -7.9784558029        0.9759215637      -11.3695192741
 C        -9.6179206425        2.7218877331      -11.2411646854
 C       -10.4900171725        1.9407550294      -12.2165390184
 C       -10.9804387546        0.5992779233      -11.6253227052
 O       -11.2308897475        0.4681366502      -10.4721901036
 C       -11.0928594666       -0.6975741716      -12.6066831191
 C       -10.0945875463       -1.7627913076      -12.0018529004
 O        -8.8576032705       -1.6409946341      -12.2495447689
 C       -10.7003623964       -2.6977035555      -10.8709954941
 C        -9.7659741360       -3.7480033637      -10.1814763336
 C        -9.4144997560       -3.3121163927       -8.7358997769
 O        -8.7177607546       -2.3603350199       -8.4713727792
 C       -10.4645386008       -3.7477390066       -7.6819893464
 C       -11.6895832586       -2.7202081500       -7.6495626575
 O       -11.5935956539       -1.6341786111       -8.2088716134
 C       -12.9180215202       -3.2193916385       -6.9278142197
 C       -13.8452946507       -2.0874804357       -6.4839624924
 C       -13.1103525934       -1.0009953175       -5.7109481788
 O       -11.9315285547       -1.1377664381       -5.4086541322
 C       -13.7025879529        0.5014339256       -5.4472742696
 C       -13.1962300124        0.8794166359       -4.0368559013
 O       -13.6328598067        0.2515736027       -3.0837126792
 C       -11.9593900010        1.7463904934       -3.8951070741
 C       -11.4848239135        2.2563024825       -2.5521136988
 C       -10.0395849224        2.7616403567       -2.5461096742
 O        -9.2750208835        2.5272921032       -3.3845540212
 C        -9.5056360665        3.4505577360       -1.2497261037
 C        -9.7589550104        4.9641051742       -1.2328893741
 O       -10.6042108937        5.4684221376       -0.4597451922
 C        -9.0906905967        5.9727349316       -2.2181898520
 C       -10.2721527677        2.8918543172        0.0459123539
 C        -8.0594969000        2.9795680925       -1.0715646145
 C       -13.2682001645        1.3551226352       -6.6409646734
 C       -15.2061262937        0.3691815368       -5.4399153554
 C       -10.9661205917       -5.1773183463       -7.7519953915
 C        -9.8103908699       -3.5266569234       -6.1380859688
 C       -12.5001746422       -1.2572561272      -12.5534377491
 C       -10.5738039713       -0.3468028199      -14.0433573697
 C        -8.0983504831        3.5945399594       -8.7906015872
 C        -6.1505774594        2.5906927382      -10.0552420978
 C        -6.3193798081       -0.3260616607       -3.0258039378
 C        -3.9219041187       -0.9289250963       -3.6128999967
 C        -6.6628360515       -6.3247127503       -7.8672045729
 C        -4.1802939236       -6.5453120310       -8.8434027163
 C        -2.7863523592       -0.2384852569      -11.5886789770
 C        -4.0550572187       -1.1387335194      -13.7029581473
 C         2.4840516079       -5.0559278953      -12.9186939424
 C         2.0543078002       -3.6805943127      -10.7875941567
 C         8.5105432784       -0.7120877566      -10.8394162175
 C         8.7762837435        0.0164369412      -13.3471353478
 C        11.5161594694       -5.0174191087      -15.7964309120
 C        11.4590436758       -2.6743979249      -16.9154323632
 C         4.0268279946       -4.7763443627      -17.1916588774
 C         5.0873410380       -4.5998282989      -19.5215839669
 H         2.7572649311       -2.6206508005      -18.6294631060
 H         4.1099687564       -1.7429901595      -19.5968481120
 H         3.4162748863       -1.1658984749      -18.1156237039
 H         8.1836688227       -4.0442857082      -18.7593913576
 H         7.7519963882       -5.6782551551      -18.8971701931
 H         9.8706692253       -5.4049721812      -17.7666404586
 H         8.8380317827       -5.8802414091      -16.3953089727
 H        11.9937473253       -3.4464377589      -12.9422384878
 H        10.5754116153       -4.5514683261      -13.1918895846
 H        10.5670412636       -1.8359149367      -11.8641835145
 H        10.1269679513       -3.3825987515      -11.2120835373
 H         5.6499666811       -0.6032483449      -10.5609682814
 H         6.1207634581       -2.2926563205      -10.8440638177
 H         3.8516562978       -0.8420266517      -12.4693858482
 H         3.5571197624       -1.5509388373      -10.9130324137
 H         0.0149349086       -4.2684614847      -12.7185551754
 H        -0.2642699839       -3.4539962207      -14.1479711390
 H        -0.4729067713       -1.2231986096      -12.5322975972
 H        -0.8904299942       -2.5369231431      -11.4076623455
 H        -4.6146221914       -3.8983186457      -12.7996136493
 H        -6.0337113976       -3.5418588808      -11.9222794310
 H        -3.7087154657       -4.5640578933      -10.3520365134
 H        -4.8087718265       -5.5530209775      -11.0831044555
 H        -5.6839378750       -4.9483101912       -5.3859031515
 H        -6.6793682683       -3.9179447110       -6.3621003973
 H        -4.6268025694       -2.1877015572       -6.4307429751
 H        -4.1220327288       -3.1386245614       -5.0081422918
 H        -7.5404274954        0.0456787623       -5.4660979647
 H        -6.7335394637       -0.6746163143       -6.7730204329
 H        -6.1274096134        2.0254167044       -7.0921334142
 H        -7.7112389038        2.1590018828       -6.3794239788
 H        -9.3129555048        3.6801529114      -11.6434028843
 H       -10.3760575659        2.8450717074      -10.3659830270
 H       -10.0024451558        1.8184222222      -13.2119271532
 H       -11.3796543906        2.5390758429      -12.1723736054
 H       -11.4548340467       -3.2963768097      -11.3649451939
 H       -11.1987935849       -1.9895381843      -10.1615801264
 H        -8.8376932516       -3.9972009229      -10.7195537676
 H       -10.2763715267       -4.6801155154      -10.1347253874
 H       -12.6545667353       -3.8419225388       -6.0109109882
 H       -13.4698431176       -3.9416790831       -7.6045762343
 H       -14.6390500237       -2.5065039479       -5.8372948097
 H       -14.2451132952       -1.4903138378       -7.2798374313
 H       -12.1178846467        2.6037939680       -4.5439389971
 H       -11.1711776486        1.1247816207       -4.3636501284
 H       -11.5114452215        1.4054237006       -1.8505835602
 H       -12.1714466679        2.9869569937       -2.0862072970
 H        -9.7942898435        6.7181181930       -2.4998944770
 H        -8.9180969309        5.2880330535       -3.0524610715
 H        -8.1915103612        6.3204307862       -1.7513510236
 H       -10.3317567399        1.8010238954        0.0469392692
 H       -11.2992952899        3.2421827504        0.0028003866
 H        -9.7103003248        3.2226992272        0.9603767798
 H        -7.9683136879        1.9728035903       -1.3768465907
 H        -7.5863283496        3.2503254525       -0.1152207196
 H        -7.4001773213        3.5931242413       -1.6727640112
 H       -13.9035309595        1.0419808902       -7.4990738397
 H       -12.1818836281        1.2704667173       -6.9705116658
 H       -13.4491956977        2.4040140483       -6.4545123985
 H       -15.5923750505       -0.4752347884       -4.8441209545
 H       -15.5680924713        0.1748206796       -6.4569450167
 H       -15.7320831655        1.1911274939       -5.0281891068
 H       -11.9833707425       -5.3070749698       -8.1998389541
 H       -11.1462076994       -5.3901239883       -6.6740108264
 H       -10.2857098852       -5.9396628293       -8.1670570456
 H       -10.4532534008       -3.6629219023       -5.3304655283
 H        -9.4443303636       -2.5642517567       -6.0759960183
 H        -8.9850480658       -4.2349216768       -6.1170903795
 H       -13.2829450869       -0.4527339277      -12.6369925175
 H       -12.7521411357       -1.7841077529      -11.6167406047
 H       -12.6244125811       -1.8959946473      -13.4059989039
 H        -9.5406863557       -0.1211344255      -13.9556844794
 H       -11.1140334790        0.5112893022      -14.5919857342
 H       -10.5854817732       -1.2236453502      -14.6889496283
 H        -7.9339574572        4.5180172323       -9.3869028775
 H        -7.7678244156        3.9045296035       -7.8971439168
 H        -9.1599113166        3.4916103067       -8.6647378979
 H        -5.7003409599        1.8380221370      -10.6447315620
 H        -5.3724010956        2.8425927014       -9.3342123080
 H        -6.1765136485        3.4808015477      -10.6728456115
 H        -6.2033956225        0.7372125199       -2.9001177788
 H        -6.0098218844       -0.9699535975       -2.0941015728
 H        -7.4649430242       -0.5694702000       -3.2722249982
 H        -3.7883734878       -0.4404377115       -2.6697790023
 H        -3.2134418030       -0.4711590210       -4.3536143854
 H        -3.6279864558       -1.9861438006       -3.5091728060
 H        -6.2728709525       -6.7968858893       -6.9393203301
 H        -7.1697706353       -7.0662082983       -8.4373291929
 H        -7.3250107741       -5.5445383478       -7.6893904900
 H        -3.4450414215       -5.9632191691       -9.3769028642
 H        -4.5010603658       -7.2908714303       -9.5695740632
 H        -3.6899805503       -6.9059218580       -7.9895910968
 H        -2.2960991215        0.5147677608      -12.2364517527
 H        -2.0716780482       -0.7374337349      -10.9169646209
 H        -3.5187302618        0.2155434675      -10.9464140267
 H        -4.9938621466       -0.5853869802      -13.5625892227
 H        -4.3227987863       -2.1084092253      -14.1538239544
 H        -3.4503559608       -0.5795147253      -14.3836659957
 H         2.9720155010       -5.1738547704      -13.8645413197
 H         1.4301217683       -5.2587146888      -12.9667814599
 H         2.8228586219       -5.8270177900      -12.2172228418
 H         2.8307399691       -4.0023275716      -10.1432682367
 H         1.1825240947       -4.2738355472      -10.6724793728
 H         1.8717934029       -2.6288751467      -10.5879056028
 H         8.8816724787       -1.4022273419      -10.1596502089
 H         7.7299144014       -0.2082444923      -10.1898583148
 H         9.3215239916        0.0464574446      -10.8278133190
 H         9.8534313253        0.0097123647      -13.2730362342
 H         8.3520406830        0.9699623475      -13.2943108646
 H         8.5757449869       -0.4643607468      -14.3623502682
 H        10.8579158757       -5.8776833773      -15.5339540101
 H        12.3472681159       -4.9055838632      -15.0543960172
 H        12.0191163091       -5.3183597978      -16.6933206335
 H        11.7485781753       -3.0624589511      -17.8744959775
 H        12.4351757814       -2.3958061518      -16.5788369633
 H        10.8873459632       -1.7624011929      -17.2225966233
 H         2.9834410167       -4.3581072822      -17.5509537447
 H         4.0848041340       -4.5260260675      -16.0770358067
 H         3.9814294346       -5.8897220882      -17.3067966086
 H         5.7489539116       -3.9765094475      -20.0632956473
 H         4.1131979241       -4.4364471035      -19.8945137416
 H         5.3542638853       -5.5321553748      -19.8688609764
 Na        6.3153655193       -2.5375205022      -15.0109414460
 Na       -7.4938949347       -1.6415824858      -10.4466513349
