232

 C         3.7510976328       -1.9579813310      -18.7053224824
 C         4.6179400195       -2.6144130891      -17.6194022917
 O         5.1963921585       -1.8852107976      -16.8574916310
 C         4.8151243897       -4.1523753338      -17.7246526160
 C         6.3226628019       -4.5578158877      -17.1696198230
 O         6.3165662348       -4.9070040609      -15.9536591864
 C         7.4713495036       -4.8444084860      -18.0745927945
 C         8.7914819178       -5.1942194287      -17.3100359827
 C         9.3343377102       -3.8886830183      -16.4660186860
 O         8.6122444589       -2.8893303345      -16.2931473503
 C        10.7952318800       -3.6818375199      -16.0159705582
 C        10.6675638614       -2.7699642517      -14.6682318687
 O        10.5375723450       -1.5411573289      -14.6298356398
 C        10.7470726174       -3.5777336674      -13.3119974774
 C         9.9606520146       -2.7486898952      -12.2551238926
 C         8.5974606624       -2.3219911786      -12.6664670978
 O         8.0759209167       -3.0755331338      -13.4552302447
 C         8.0540147193       -0.8725443167      -12.2905279792
 C         6.5740883723       -0.9277734512      -12.6159989575
 O         6.0846710836       -0.5481261803      -13.6973802171
 C         5.6049592200       -1.3822459567      -11.4707800653
 C         4.2044292015       -1.5433960526      -11.9658423561
 C         4.0128915431       -2.9767253703      -12.5468381185
 O         4.8291486984       -3.5259424350      -13.3230855505
 C         2.6289151332       -3.6177593829      -12.3450195534
 C         1.6355377864       -2.5825969743      -13.0623528791
 O         1.9122503793       -1.4375818141      -13.1480561993
 C         0.0459765797       -2.9412694170      -13.3366447410
 C        -0.9401349844       -2.0967273183      -12.4393347067
 C        -2.4148402582       -2.4327418757      -12.8881614202
 O        -2.6685671666       -3.3939153636      -13.5511662220
 C        -3.5202585866       -1.4227668892      -12.4051653147
 C        -4.7255167153       -2.0545961432      -11.7269475658
 O        -5.2246934152       -1.4997338080      -10.7697882207
 C        -5.2010855248       -3.5609901548      -11.8667753126
 C        -4.5426533467       -4.4559758178      -10.7500273811
 C        -5.5300067479       -4.6059490363       -9.5183444447
 O        -6.5906451300       -4.0457030660       -9.4833648588
 C        -5.1909077835       -5.6937457129       -8.3452167803
 C        -4.5895158350       -4.7786684895       -7.1987648299
 O        -3.3929051519       -4.4516161858       -7.1642494428
 C        -5.5818149548       -4.0804962850       -6.3358761944
 C        -4.7776559590       -2.9853813474       -5.4577005954
 C        -5.7530581667       -2.1301993524       -4.5877410375
 O        -6.9064389414       -2.4842119379       -4.4385172493
 C        -5.2332569083       -0.8065608735       -4.0773734826
 C        -5.3613636013        0.1443552559       -5.3348707417
 O        -4.4274159845        0.8224110743       -5.6065002243
 C        -6.7296260467        0.2046783973       -6.0637096740
 C        -6.8083991424        1.4593298808       -6.9446123033
 C        -7.3258045305        1.0991760868       -8.3400848659
 O        -7.4418046301       -0.0658080807       -8.6432237606
 C        -7.5294539053        2.2089862743       -9.4159208114
 C        -8.2808814818        1.7122827298      -10.7164048833
 O        -7.9046175578        0.8149503861      -11.4219257196
 C        -9.5241014018        2.5142915601      -11.0077146485
 C       -10.6050573272        1.9422173623      -12.0044267035
 C       -11.0063585480        0.4975731928      -11.5900963854
 O       -11.3006626136        0.2155207672      -10.4535140467
 C       -11.1281262932       -0.6245805659      -12.7209018560
 C       -10.2042456855       -1.7724752753      -12.0424645591
 O        -9.0323145753       -1.7416913799      -12.1779393963
 C       -10.9683016154       -2.7817403302      -11.1196499975
 C        -9.9374081991       -3.6637373440      -10.3827078602
 C        -9.5518354562       -3.3595610741       -8.8858139636
 O        -8.5828366707       -2.6402553394       -8.5874290522
 C       -10.4447534816       -3.7438974399       -7.6433039563
 C       -11.7640516812       -2.8569604729       -7.7258960365
 O       -11.7425452218       -1.8265500733       -8.3061986311
 C       -13.0789523127       -3.2715424182       -6.8544523238
 C       -13.8756607844       -1.9923587989       -6.6329616556
 C       -12.9948595569       -1.0123166130       -5.6693877198
 O       -11.8890383380       -1.3645483607       -5.4097746117
 C       -13.5409628921        0.3934264380       -5.4157430772
 C       -12.9570185194        0.8158286169       -4.0972012320
 O       -13.5817388464        0.5421453835       -3.1034398627
 C       -11.6281356184        1.5526781736       -3.9713611246
 C       -11.4755031580        2.0491880586       -2.4990549722
 C       -10.0943673376        2.7375817242       -2.3320264296
 O        -9.3251430933        2.7493943840       -3.3670733794
 C        -9.5554754324        3.4226611424       -1.0409149051
 C        -9.7804691405        5.0129961191       -1.2236094372
 O       -10.5574630013        5.6386127229       -0.6051332252
 C        -8.8707438173        5.6435395455       -2.3760451315
 C       -10.3210765342        3.0168266328        0.2382252500
 C        -8.0997337205        3.2235612694       -0.8597579498
 C       -13.1221544508        1.1632131763       -6.6733379688
 C       -15.0520731413        0.3967906889       -5.3309786847
 C       -10.9677769631       -5.2524363635       -7.8478340072
 C        -9.6572369052       -3.6365119866       -6.3663339752
 C       -12.6955494990       -0.7842915855      -12.8504300403
 C       -10.5833954460       -0.4066829813      -14.1551144332
 C        -8.0230743475        3.4273161812       -8.7877221872
 C        -6.0086459062        2.4866424746       -9.9169191423
 C        -6.2077928393       -0.3111095760       -2.8272838863
 C        -3.7949619364       -0.8895568347       -3.5490353965
 C        -6.4548653057       -6.3565159949       -7.9193039975
 C        -4.2838433066       -6.9042832265       -8.6974917927
 C        -3.0292749432       -0.1965801493      -11.4954535790
 C        -4.0436634293       -0.7279777950      -13.7203375118
 C         2.6089014582       -5.0330583007      -13.0584870217
 C         2.1792021691       -3.7553688084      -10.9041036374
 C         8.4513962596       -0.4383341584      -10.8681841257
 C         8.7241034455        0.0773671973      -13.2457227673
 C        11.6819770539       -4.9822895350      -15.7673116453
 C        11.4576555497       -2.7665403997      -17.0938110445
 C         3.7977255257       -4.8722256295      -16.8532909796
 C         4.7095058791       -4.6275078983      -19.1835976482
 H         2.8405534960       -2.5702674685      -18.9327243972
 H         4.4114849849       -1.8107144095      -19.4796771735
 H         3.3293952950       -0.9200309241      -18.4420666386
 H         7.6041738106       -3.9582535304      -18.7141175106
 H         7.2133267175       -5.5743009494      -18.8069009493
 H         9.5565848063       -5.5737787748      -17.9927592502
 H         8.4483218257       -5.9791855990      -16.6425818405
 H        11.8277079481       -3.7336673506      -13.0487854229
 H        10.1789786205       -4.4944093488      -13.4338555065
 H        10.5765449664       -1.9891420684      -11.8105420441
 H         9.8040687900       -3.4194563694      -11.3886058384
 H         5.6156762698       -0.4762254534      -10.8409446269
 H         6.0569033141       -2.2611628440      -10.9330669944
 H         3.8879350528       -0.7475789613      -12.7387317438
 H         3.4730711848       -1.4555487017      -11.1589035535
 H        -0.1253609353       -4.0005654648      -13.2700920786
 H        -0.1549256532       -2.8285874133      -14.4310691013
 H        -0.7085890493       -1.0281661854      -12.4874824859
 H        -0.8468519539       -2.4062714708      -11.3349713844
 H        -4.8485607004       -3.9945091459      -12.8024276224
 H        -6.3359056199       -3.4936711870      -11.9955566519
 H        -3.5871309138       -4.0353841834      -10.4433861825
 H        -4.3028124020       -5.4990010586      -10.9408770392
 H        -6.1508498473       -4.8274433619       -5.8112068125
 H        -6.3275383307       -3.5940322953       -6.9267717074
 H        -4.3982845331       -2.2200235271       -6.1526349790
 H        -3.9121401669       -3.5054307084       -4.9281873441
 H        -7.5616731556        0.1303589329       -5.3647699241
 H        -6.8581652298       -0.6959693920       -6.7185988093
 H        -5.6947722543        1.7667087120       -6.9345164943
 H        -7.4991674321        2.1756329936       -6.5869337493
 H        -9.1229614947        3.4445898610      -11.4611440463
 H        -9.9750445968        2.8201810729      -10.1208193398
 H       -10.1603875549        1.9827537495      -12.9688384712
 H       -11.5192516448        2.5806597334      -11.8696710726
 H       -11.6874490398       -3.4335854848      -11.6877478456
 H       -11.5611940833       -2.1682632562      -10.4143073581
 H        -8.9688873773       -3.6816095125      -10.9645844143
 H       -10.3321749060       -4.7510326790      -10.3293118469
 H       -12.7675075817       -3.6621345074       -5.9330943629
 H       -13.6817795990       -4.0121588508       -7.2813400708
 H       -14.8724216547       -2.1549739484       -6.2931083124
 H       -13.9014779407       -1.4290928840       -7.5943209885
 H       -11.5725376848        2.4229286837       -4.6821997488
 H       -10.8125720047        0.9012567870       -4.3040761574
 H       -11.6852336069        1.2615465250       -1.7459029479
 H       -12.2367628479        2.8243732604       -2.2668890968
 H        -8.7067560748        6.6249227077       -1.8480939643
 H        -9.3998519053        5.7587936045       -3.3256875122
 H        -7.8787099684        5.1428139373       -2.4046681694
 H       -10.0890203187        2.0222253377        0.5071355483
 H       -11.3675926385        3.0412916812        0.0948803143
 H       -10.0123229818        3.7016481715        0.9740010545
 H        -7.8392327419        2.1272510906       -0.7875054447
 H        -7.6469825438        3.7797618108       -0.0561288844
 H        -7.5080786047        3.5956175191       -1.7175185291
 H       -13.2849757283        0.6325991200       -7.5787645479
 H       -12.0765511000        1.4011325539       -6.6716302132
 H       -13.6421461042        2.1523518491       -6.6588520098
 H       -15.4340685703        0.5084792463       -4.2997466068
 H       -15.6106641029       -0.5049758452       -5.7248657423
 H       -15.4737245274        1.3726295730       -5.7590499955
 H       -11.4726702870       -5.3006125571       -8.7905669292
 H       -11.6180066870       -5.7272646569       -7.1121490831
 H       -10.0413504790       -5.8066524113       -8.0002460545
 H       -10.4319179982       -3.3456801421       -5.6137336093
 H        -8.9595617895       -2.7748154846       -6.4354763058
 H        -9.2073668705       -4.5619177546       -6.0807320102
 H       -13.2055661661       -0.3020927261      -13.6876792370
 H       -13.1614393542       -0.4262624299      -11.9371536039
 H       -12.9308090550       -1.8801821450      -12.9972807031
 H        -9.5331366808       -0.6327847081      -14.3025384230
 H       -10.7683937019        0.5513128444      -14.5882994643
 H       -11.1738670686       -1.1102287941      -14.7260099271
 H        -8.3586707385        4.1901032310       -9.4173012948
 H        -7.1991575391        4.0671049847       -8.3075302708
 H        -8.7524389596        3.2320534768       -7.9976570559
 H        -5.3887070107        1.5699446031      -10.2052752677
 H        -5.3223278348        2.8774545229       -9.1447075322
 H        -5.9092202361        3.2249252261      -10.7644037005
 H        -5.4848455038       -0.0544287260       -2.0138133420
 H        -6.6879130918       -1.1296747137       -2.5342059091
 H        -6.8000550905        0.4409585875       -3.0009023569
 H        -3.7140797258       -0.1704457321       -2.7150317364
 H        -3.0537377516       -0.5071449291       -4.2418760264
 H        -3.5755672564       -1.8801747787       -3.2077501670
 H        -6.3941701599       -6.8526693091       -6.9433146341
 H        -6.7775854098       -7.1271725638       -8.6587117806
 H        -7.2264057307       -5.5173878254       -8.0644804920
 H        -3.2199520804       -6.5754623029       -8.7652491460
 H        -4.4674768228       -7.3998773521       -9.6514704064
 H        -4.4713402071       -7.5520273344       -7.7680539769
 H        -2.2546558927        0.2829717174      -12.0853998139
 H        -2.8017113838       -0.4142277763      -10.4800806116
 H        -3.9227576538        0.4689220975      -11.4736671273
 H        -4.6242436496        0.1439910332      -13.6453007922
 H        -4.7424991804       -1.4353765498      -14.1981213310
 H        -3.1592253059       -0.4415028782      -14.2786064667
 H         2.9813567283       -4.8433112366      -14.1061065822
 H         1.6082754283       -5.5240490481      -13.0300348699
 H         3.2752938991       -5.7412448136      -12.5490132402
 H         2.7534348573       -4.6147096413      -10.5275611335
 H         1.0959806904       -3.9645268499      -11.0005129069
 H         2.2700008309       -2.8836747994      -10.2892962417
 H         9.1134581781       -1.1943758495      -10.3499045438
 H         7.6626218645       -0.3187094808      -10.1825559993
 H         8.9965145379        0.4407309275      -10.6757614105
 H         9.7904438540        0.0984760656      -13.0970547878
 H         8.1757753163        1.0459678167      -12.9469560929
 H         8.5379979355       -0.1297316057      -14.2622428254
 H        11.3338358790       -5.7586982206      -15.0808657943
 H        12.5818487661       -4.6011315826      -15.3315643291
 H        11.8820253290       -5.5327472413      -16.7528681632
 H        11.2515294412       -2.9262607915      -18.1658616666
 H        12.6189784918       -2.6691064263      -16.9976115879
 H        11.1699170881       -1.7464645429      -17.0190261124
 H         2.8762048236       -4.4914810464      -16.9986125032
 H         4.0476233673       -4.5073870020      -15.8804193294
 H         3.7668319643       -5.9457952548      -16.8479516490
 H         5.3077517228       -4.1162668767      -19.9898922829
 H         3.6359459754       -4.6828929491      -19.5456840927
 H         5.0079124008       -5.7332074749      -19.2820588879
 Na        6.4695855871       -2.7735589787      -15.0358935974
 Na       -7.4960219227       -1.5545712061      -10.3666658498
