232

 C         3.7783977978       -1.8275818000      -18.7867759416
 C         4.6180999715       -2.6078516961      -17.7006894826
 O         5.1237652310       -1.9429789749      -16.8133904348
 C         4.7018140876       -4.2477537305      -17.6214842935
 C         6.1490245031       -4.6924171617      -17.0509341209
 O         6.2340786171       -5.0484873190      -15.8555172349
 C         7.3521764258       -4.8494057979      -17.9523873918
 C         8.7872254885       -4.9508965222      -17.2686758367
 C         9.3486206390       -3.7305815428      -16.5284484171
 O         8.5457581833       -2.9092058066      -16.2938133095
 C        10.8361486666       -3.6391115301      -16.0398788970
 C        10.7449243369       -2.8763602817      -14.7317214940
 O        10.5749354774       -1.6646587540      -14.8271732504
 C        10.5400005093       -3.6439958843      -13.3299255236
 C        10.1425714477       -2.7824656134      -12.1461263164
 C         8.7162221298       -2.2733183382      -12.6464322601
 O         8.0148040199       -3.0027381729      -13.3679239004
 C         8.1144482834       -0.8177838151      -12.3107306972
 C         6.5455472908       -0.7510358057      -12.6242042219
 O         6.1388250279       -0.3555466956      -13.6861470559
 C         5.6168910088       -1.2721898990      -11.4928523644
 C         4.2638915883       -1.5802907411      -12.0207736872
 C         4.0306642737       -2.9262245485      -12.6607736404
 O         4.9291022308       -3.4608224459      -13.2937398818
 C         2.5426121571       -3.6313687093      -12.4541717570
 C         1.5300115617       -2.4559987584      -12.9142921358
 O         1.9109226505       -1.3425470507      -13.2329762907
 C         0.0586737545       -2.8391534596      -13.2887486456
 C        -0.9671267295       -2.0992188835      -12.5393860705
 C        -2.4815895530       -2.2810665608      -12.9103071662
 O        -2.8318652020       -3.3587654468      -13.4299576522
 C        -3.5041768010       -1.3180458693      -12.5437023137
 C        -4.6974872051       -2.1068359009      -11.6358984372
 O        -5.2856256738       -1.3976951373      -10.8582966020
 C        -5.1234394347       -3.5730717292      -11.8001116378
 C        -4.4131585306       -4.5037033771      -10.7860106259
 C        -5.3968920839       -4.7788763851       -9.6295122781
 O        -6.4011726872       -4.1228537308       -9.4933184479
 C        -5.1425420791       -5.7623655020       -8.3925291194
 C        -4.5066658401       -4.6780823091       -7.2698287699
 O        -3.3221129216       -4.5158289638       -7.3048103381
 C        -5.4530682738       -3.8682891087       -6.3304681165
 C        -4.7097650934       -2.9856150668       -5.3562880237
 C        -5.7520709068       -2.1241271454       -4.5776654571
 O        -6.8698284471       -2.5197505900       -4.4258339901
 C        -5.2291294832       -0.7978416241       -3.9400747578
 C        -5.3806455636        0.2371193917       -5.1022849199
 O        -4.4194828388        0.8163775780       -5.6080637414
 C        -6.7191124235        0.2996037572       -5.9367820512
 C        -6.8201009219        1.4459715469       -6.9785257086
 C        -7.2548598871        1.0001832525       -8.3991432606
 O        -7.4613972245       -0.1848812287       -8.6226564305
 C        -7.3024333680        2.1941766218       -9.4245892375
 C        -8.2520881402        1.6980096898      -10.6470618538
 O        -7.9763150155        0.6554663515      -11.2741612913
 C        -9.6152697314        2.4722891403      -10.8634661272
 C       -10.4033667842        1.8590195067      -12.0329440584
 C       -10.9886013938        0.4785845437      -11.5903533905
 O       -11.2982603625        0.1995931534      -10.4845310696
 C       -11.1925235507       -0.6547295081      -12.7534590592
 C       -10.4298106644       -1.7662636860      -12.0916602324
 O        -9.2168529546       -1.8113030619      -12.1859438980
 C       -11.0865189238       -2.7721177714      -11.1244579365
 C       -10.1135310788       -3.6529118105      -10.3902854793
 C        -9.6869385706       -3.3023393417       -9.0050984620
 O        -8.6146402692       -2.7181080826       -8.7242459930
 C       -10.5151619340       -3.8118376756       -7.8031750895
 C       -11.7665010935       -2.9423828860       -7.7073190610
 O       -11.8307886672       -1.9729234914       -8.4121803630
 C       -12.9987062416       -3.3290927980       -6.9556571229
 C       -13.8370458630       -2.0929723784       -6.5877706211
 C       -13.0172628002       -1.1558172254       -5.7405312378
 O       -11.9127476527       -1.4789969845       -5.3381913211
 C       -13.5148342400        0.3955169233       -5.4413541677
 C       -12.9353538231        0.8804294760       -4.0191204715
 O       -13.6022440884        0.6828258619       -3.0021765258
 C       -11.5453874997        1.4935605954       -3.9292126421
 C       -11.2974991173        2.0762396295       -2.5020013676
 C       -10.0052664351        2.8083008858       -2.3652644312
 O        -9.2280380219        2.9093442019       -3.3130887490
 C        -9.6247502807        3.4121782579       -1.0119388966
 C        -9.7407795086        4.9924305395       -1.3161017811
 O       -10.5536296016        5.6696531104       -0.6800454545
 C        -8.8674258871        5.5206772895       -2.4169887693
 C       -10.3975127927        3.0914282888        0.2897708373
 C        -8.1161970047        3.2121859125       -0.7164849285
 C       -12.9656014948        1.2851522616       -6.6257439195
 C       -15.0805550517        0.4794374718       -5.3131537298
 C       -10.9490484167       -5.4154422729       -7.9682869179
 C        -9.6767988912       -3.6857409884       -6.4514242697
 C       -12.6807133399       -0.8661184441      -12.8621739284
 C       -10.4768385280       -0.3259288828      -14.1069965271
 C        -7.9649308190        3.4609174678       -8.7484544479
 C        -5.8729823502        2.4595999221       -9.8988917881
 C        -6.1261119646       -0.2809540348       -2.7924638341
 C        -3.7646119180       -0.8481262024       -3.5497130490
 C        -6.5781738836       -6.3270151691       -7.9519954086
 C        -4.1719977842       -6.8875707614       -8.7861629229
 C        -3.0316387176       -0.3034449687      -11.4230624204
 C        -4.1144629101       -0.6858144554      -13.8051951825
 C         2.5307991157       -5.0014357206      -13.1400531111
 C         2.2364326131       -3.9494933815      -10.8932948225
 C         8.4008889072       -0.4549327047      -10.8751083277
 C         8.6642984930        0.3955353713      -13.3172617096
 C        11.6560377817       -4.9394216632      -15.8579227056
 C        11.4710243120       -2.8763322080      -17.2071384247
 C         3.6930151568       -4.8727374475      -16.7072942317
 C         4.5003103084       -4.6971655076      -19.0751099635
 H         2.7638326981       -2.2520080495      -18.9452039884
 H         4.4255530100       -1.6476651719      -19.6651065070
 H         3.5633442769       -0.8428510708      -18.4226558184
 H         7.3942002557       -3.9792484392      -18.6567268216
 H         7.2575095520       -5.6788825248      -18.7007943580
 H         9.5300371583       -5.0739099440      -18.1260175796
 H         8.7391227734       -5.8799378026      -16.6705020756
 H        11.5506499414       -4.0225626662      -13.1038976245
 H         9.7885895157       -4.4484690632      -13.4349648608
 H        10.9218084110       -2.0921085258      -11.8008109141
 H        10.0760853923       -3.4702894250      -11.2952705716
 H         5.5505111025       -0.4852187212      -10.7744412523
 H         6.1569445318       -2.1519497569      -11.1691795060
 H         4.0332368791       -0.9016195321      -12.8063976183
 H         3.4927003266       -1.4336297306      -11.3321227117
 H        -0.0756714598       -3.9555587133      -13.3344934245
 H         0.0172839763       -2.6410725419      -14.3691327634
 H        -0.7300274717       -1.0141429899      -12.5745862289
 H        -0.8915965464       -2.3716914839      -11.4586310896
 H        -4.8439445478       -3.9175044211      -12.8305365886
 H        -6.2421324697       -3.5904555169      -11.7759478522
 H        -3.4735800563       -4.0900947490      -10.2807260710
 H        -4.1085830683       -5.5216373336      -11.1338174495
 H        -5.9661731481       -4.6178405389       -5.6929262887
 H        -6.3000469202       -3.3741204988       -6.7820541962
 H        -4.0492696937       -2.3041441645       -5.7911838496
 H        -4.2063038700       -3.7332683994       -4.7135395023
 H        -7.5458167326        0.3951994108       -5.2489216572
 H        -6.8913593236       -0.6858716062       -6.4383885549
 H        -5.6778164961        1.7104315001       -7.0187169196
 H        -7.5410844529        2.2713533133       -6.6427656318
 H        -9.4218190677        3.5230468824      -10.9958178964
 H       -10.2492425452        2.4151101258       -9.9053228161
 H        -9.8486750517        1.9662405553      -12.9885432000
 H       -11.3177101758        2.4180813660      -12.0313504729
 H       -11.6840834467       -3.4710818373      -11.7319802009
 H       -11.7564777117       -2.2551912887      -10.4741094847
 H        -9.2154489228       -3.7292212533      -11.0323673728
 H       -10.5602799875       -4.6431880548      -10.2490402059
 H       -12.7398838806       -3.9165772493       -6.0364424954
 H       -13.5576582803       -3.9807427065       -7.5883523480
 H       -14.6922571342       -2.2772719304       -5.9223788321
 H       -14.1996627276       -1.5293873233       -7.5111052412
 H       -11.3193640556        2.2328864608       -4.7679451480
 H       -10.8948056128        0.6746837309       -4.1988966202
 H       -11.2993437250        1.3240950885       -1.7324065163
 H       -12.0859898387        2.7006404499       -2.1436032687
 H        -8.2331527181        6.2774711506       -1.9553910651
 H        -9.5682325017        5.9679082036       -3.1217112161
 H        -8.2732037212        4.6777667766       -2.8101629823
 H       -10.0943614206        2.0984026067        0.5569767931
 H       -11.4582862504        3.0318580246        0.1674174188
 H       -10.1211005120        3.8529030000        1.0569043018
 H        -8.0084661247        2.3889468011       -0.0138112955
 H        -7.6585692185        4.1118248614       -0.2251514743
 H        -7.4230853063        2.9935072442       -1.5200651137
 H       -13.0801763509        0.8631430953       -7.5690914899
 H       -11.8481471264        1.4016831459       -6.5880870764
 H       -13.3725805604        2.2839231299       -6.6143307235
 H       -15.3199846260        0.6816468204       -4.2974863809
 H       -15.6423633957       -0.4630695554       -5.4777492789
 H       -15.5726289680        1.2826481198       -5.7687004939
 H       -11.2609811451       -5.8176761603       -8.8866981069
 H       -11.7253958381       -5.6604186748       -7.2245320184
 H       -10.0557995913       -5.9019882537       -7.6841952888
 H       -10.4023571574       -3.4678980306       -5.6153173920
 H        -9.0613105930       -2.7814138284       -6.5700577907
 H        -9.0670355003       -4.6281413817       -6.1893637339
 H       -13.0097899404       -0.2701035767      -13.7541336493
 H       -13.1841967147       -0.4103130416      -12.0570365743
 H       -13.0460270861       -1.8331465507      -13.0278826837
 H        -9.4538892700       -0.2737421370      -13.9750100507
 H       -10.7774137482        0.6980896638      -14.5941093741
 H       -10.7582706538       -1.1000314762      -14.8375743734
 H        -8.2631862353        4.3199021294       -9.4240613504
 H        -7.3744158971        4.0350903099       -8.0795262666
 H        -8.8541166308        3.0873495535       -8.1395799802
 H        -5.3169014310        1.5270889329      -10.1383045904
 H        -5.1781666729        2.7549503003       -9.0686424574
 H        -5.6818380927        3.1509510384      -10.6959266650
 H        -5.5461784270       -0.4051158549       -1.9262379469
 H        -7.0629928431       -0.8510406470       -2.6483698707
 H        -6.2356038580        0.8219785757       -2.9750058058
 H        -3.3073891883        0.0068370775       -3.0905792649
 H        -3.1361053931       -1.0140746701       -4.4861614910
 H        -3.7520248420       -1.7540997384       -2.9660897603
 H        -6.5313852188       -7.0133234529       -7.0202122643
 H        -6.9299206572       -6.9453436209       -8.7473314779
 H        -7.2738527127       -5.5047605681       -7.9480460722
 H        -3.1271886201       -6.5275630239       -8.7092308369
 H        -4.2300573619       -7.1737809049       -9.8237353134
 H        -4.4174884983       -7.7142075810       -8.0952341508
 H        -2.0891733615        0.1946210796      -11.7330445897
 H        -2.9748397297       -0.8346613733      -10.5220330526
 H        -3.8871528208        0.4062773694      -11.2512348730
 H        -4.8994080405        0.0539194839      -13.6428333847
 H        -4.7181876470       -1.4580015279      -14.3771784343
 H        -3.3241667716       -0.1464422322      -14.3118697924
 H         2.5387097511       -4.9486272534      -14.2239962270
 H         1.6571618012       -5.5281092158      -12.7557079229
 H         3.3752816060       -5.5938357327      -12.7747817179
 H         2.9079639812       -4.7289372962      -10.4761258729
 H         1.1428397976       -4.1015498818      -10.8163746193
 H         2.3697484739       -2.9405469307      -10.4081424993
 H         9.0811111991       -1.0807115949      -10.3617566055
 H         7.4966070069       -0.4225298987      -10.2296699110
 H         8.7765460872        0.4943666059      -10.6188319112
 H         9.7050882874        0.4778753161      -13.2447525737
 H         8.1054749901        1.2733765473      -12.9579914132
 H         8.4053766267        0.2326127957      -14.4258447890
 H        11.4257780162       -5.5143289832      -14.9189659557
 H        12.6602234524       -4.6806815003      -15.6647101018
 H        11.4619628285       -5.6129093970      -16.7068898477
 H        11.1629694652       -3.2157301327      -18.1640889382
 H        12.5902397060       -2.8378109635      -17.1550334138
 H        11.2792375388       -1.7871036972      -17.2754272055
 H         2.6965819878       -4.5731805396      -16.9481401534
 H         3.8387777480       -4.5262673010      -15.7311950290
 H         3.7990089141       -5.8851634547      -16.6971510344
 H         5.1673517890       -4.3093581379      -19.8741049086
 H         3.4395502629       -4.3955074388      -19.3837412470
 H         4.4355420161       -5.7997034146      -19.2361749284
 Na        6.4921019874       -2.8405578410      -14.9757472846
 Na       -7.5130721080       -1.5273241116      -10.3389865445
