232

 C         4.1653438029       -2.0184775370      -18.7713565214
 C         4.7101147738       -2.7660380433      -17.5550159096
 O         5.1048734714       -2.2062259539      -16.5592792714
 C         4.5234397611       -4.3734881415      -17.5366021752
 C         5.9445297493       -4.8044347164      -16.9456799104
 O         6.1870592508       -5.2009375028      -15.7609476751
 C         7.0546442844       -4.6671159628      -18.0331957765
 C         8.4262417979       -4.9069437977      -17.3013164750
 C         9.0417809253       -3.6664464855      -16.5479140860
 O         8.2808940376       -2.8035504359      -16.1352855335
 C        10.5436086691       -3.7291529372      -16.3061032316
 C        10.8012149794       -2.8525273694      -14.9735682680
 O        11.0104585197       -1.6599819084      -15.1343591352
 C        10.5811685780       -3.4421682716      -13.4094057128
 C        10.1022990632       -2.3530208346      -12.4902230488
 C         8.6761825395       -1.9957925162      -12.6370956274
 O         7.9478616695       -2.8772061754      -13.0829986986
 C         8.2439620833       -0.5368903154      -12.3255115018
 C         6.6656500732       -0.5894296121      -12.5872404758
 O         6.3170101136       -0.3031760478      -13.7023776571
 C         5.7068274189       -1.3186792808      -11.6180365883
 C         4.2938353695       -1.4379883803      -12.1573989595
 C         3.9513227838       -2.8405032396      -12.7309795331
 O         4.7856201698       -3.4905886430      -13.3651781695
 C         2.6065701797       -3.4099194240      -12.5966423911
 C         1.4567317211       -2.4628688430      -12.9993078445
 O         1.5127134049       -1.2933825132      -13.2403040835
 C         0.0119123169       -3.0771467298      -12.9766019876
 C        -0.9352833965       -1.8532087488      -12.6215572513
 C        -2.3778643309       -2.2953545850      -12.8769457515
 O        -2.6277152929       -3.2612235050      -13.5919586386
 C        -3.4969294165       -1.3074055097      -12.3494172882
 C        -4.6750044341       -2.0536588512      -11.7313757173
 O        -5.4166061601       -1.3790000760      -11.0674278539
 C        -4.9735532414       -3.5507996775      -11.9283795100
 C        -4.3557554627       -4.4148934244      -10.8671484488
 C        -5.4501241721       -4.6129798862       -9.7035558551
 O        -6.4499666690       -3.9652177686       -9.5561750224
 C        -4.9859146372       -5.5388720674       -8.5605911784
 C        -4.3104173561       -4.5450398255       -7.3886317320
 O        -3.1140462722       -4.4114861997       -7.3443491360
 C        -5.3037157906       -3.8431159967       -6.5248779391
 C        -4.5350093807       -3.1076117002       -5.3421607608
 C        -5.5590014580       -2.2325063636       -4.5879552076
 O        -6.6677091576       -2.6131671366       -4.3901529049
 C        -5.0907472418       -0.7506159872       -3.9217113986
 C        -5.2750008316        0.2563617455       -5.0423796555
 O        -4.3520779445        0.8824592762       -5.5395066240
 C        -6.7607925313        0.4766665786       -5.5887275795
 C        -6.8151604200        1.6547240911       -6.6582024378
 C        -7.1027415047        1.0936712214       -8.0449266206
 O        -7.2211588097       -0.1184233270       -8.2465030625
 C        -7.2265789480        2.1149685303       -9.2325141496
 C        -8.2332232719        1.5873565808      -10.3134783362
 O        -7.9595156526        0.4968896837      -10.7914571937
 C        -9.5389630594        2.4091062985      -10.6760261827
 C       -10.1880852726        1.7774659374      -11.9093807559
 C       -11.0180928396        0.4685044326      -11.6390788973
 O       -11.6325769493        0.3961638573      -10.6343293130
 C       -11.0726211099       -0.6717640261      -12.7941556821
 C       -10.2910875165       -1.9115823428      -12.1595388218
 O        -9.1357415381       -2.0118709888      -12.3909238609
 C       -11.2871846941       -2.8613190776      -11.3448721836
 C       -10.5421468657       -4.0532730584      -10.6251689542
 C       -10.0755169504       -3.6862398007       -9.2153509364
 O        -9.0660891551       -2.9357541755       -9.1322800451
 C       -10.8374818783       -4.1257027681       -7.9721925916
 C       -12.0287493193       -3.1403433507       -7.8112600736
 O       -12.1171103778       -2.1264616526       -8.4320786241
 C       -13.1248122524       -3.4680169920       -6.6439792356
 C       -13.7491411419       -2.1396835865       -6.2333931945
 C       -12.8327788151       -1.1315559696       -5.5067361225
 O       -11.8047126232       -1.5774175912       -5.0522492201
 C       -13.3639147644        0.3657637471       -5.3408854685
 C       -12.9098711736        0.9030762403       -3.9121410255
 O       -13.7024337553        1.0006678627       -2.9866775567
 C       -11.4218053818        1.2025224915       -3.7282237539
 C       -11.0647579390        1.8013404273       -2.4231819731
 C        -9.7967078930        2.6744724656       -2.3794862524
 O        -8.9019616529        2.5763692769       -3.2893854926
 C        -9.5888503581        3.6026385818       -1.0908859331
 C        -9.6820733946        5.1340063499       -1.4122669855
 O       -10.5946385186        5.7148009467       -0.8512901073
 C        -8.6925536971        5.8329556069       -2.3340287483
 C       -10.6797283415        3.2749900665        0.0291734033
 C        -8.1856723047        3.2435996404       -0.4701804334
 C       -12.6230752809        1.0756949289       -6.5048710313
 C       -14.9120903050        0.5105300255       -5.3457016959
 C       -11.1577790170       -5.6542482570       -7.9692527653
 C        -9.9149304832       -3.6825335620       -6.7554535714
 C       -12.5899813275       -0.8743889397      -13.0317573225
 C       -10.4980592918       -0.3280195001      -14.1505654442
 C        -7.5151652658        3.5433725356       -8.7437853874
 C        -5.9463224770        2.0359549920       -9.9905057228
 C        -6.0410545628       -0.5154368555       -2.7728025126
 C        -3.5642564956       -0.7995566138       -3.4059735495
 C        -6.2894248159       -6.2331267461       -7.9767137016
 C        -4.0594627182       -6.6357072739       -8.9479256741
 C        -2.8700787635       -0.1764963654      -11.4708406904
 C        -4.2387403649       -0.7622026423      -13.6363509821
 C         2.3333692607       -4.6757848393      -13.4543187156
 C         2.3832700747       -3.7698256359      -11.0995509855
 C         8.6633036445       -0.1890057585      -10.8132971727
 C         9.0467725508        0.4633509318      -13.2663986236
 C        11.0317611507       -5.1848813847      -16.1703694762
 C        11.3727680201       -2.9222019060      -17.3089268292
 C         3.3514502220       -4.5526072350      -16.4734952850
 C         4.2292154978       -5.0164453917      -18.8431767269
 H         3.0512859301       -2.0961059191      -18.6087757317
 H         4.5189414033       -2.3858507413      -19.7016188820
 H         4.3778737376       -0.9346028499      -18.7411761570
 H         7.1273899351       -3.6165702088      -18.2946338926
 H         6.9039812850       -5.1167018498      -18.9743700883
 H         9.1814240095       -5.1670130556      -17.9966872903
 H         8.2325369954       -5.6339034478      -16.5513846742
 H        11.5795923761       -3.6825599470      -12.9815791187
 H         9.9165168762       -4.2899970178      -13.2839394187
 H        10.7575073035       -1.5042114921      -12.5490674959
 H        10.3369556252       -2.7640111030      -11.4823834469
 H         5.7501631683       -0.6969249059      -10.7216988056
 H         6.1815903477       -2.3535076588      -11.5879628243
 H         3.9982865108       -0.6612547412      -13.0066773931
 H         3.4872846771       -1.2340093963      -11.4102680661
 H        -0.1136507357       -3.8935870137      -12.2912184502
 H        -0.3343053201       -3.4867632058      -13.9367378023
 H        -0.8381568481       -0.9616290101      -13.2166706733
 H        -0.8409598155       -1.3308951438      -11.6342158385
 H        -4.5828077664       -3.9193582338      -12.8475301784
 H        -6.0658602370       -3.6940068398      -12.0146244358
 H        -3.5902524930       -3.9296446071      -10.2939794210
 H        -3.9547767009       -5.2970214730      -11.3014752856
 H        -6.0466161873       -4.5527785547       -6.1737685156
 H        -5.9349767933       -3.1518545145       -7.0528813266
 H        -3.7956799639       -2.4003945445       -5.7034802811
 H        -4.1329399076       -3.8700055347       -4.5673217896
 H        -7.4823885701        0.7468687218       -4.8361878516
 H        -7.1122036840       -0.4624758529       -6.0769443181
 H        -5.8547108504        2.0866922335       -6.7604666867
 H        -7.5714217864        2.3071636000       -6.4202596502
 H        -9.2689346812        3.4474118465      -10.8674118027
 H       -10.1978152088        2.5192700774       -9.8626917107
 H        -9.4570628140        1.7073675551      -12.7050620785
 H       -10.9399105149        2.5466033262      -12.2633056173
 H       -12.0811514607       -3.2250221045      -12.0649613447
 H       -11.8065495431       -2.2297616319      -10.6032821102
 H        -9.6224069824       -4.2160266719      -11.2101223427
 H       -11.1803096053       -4.9798783223      -10.5513558170
 H       -12.6632207586       -3.8610166698       -5.7571556960
 H       -13.9187297811       -4.1101494414       -6.9302513100
 H       -14.5872186063       -2.3083787091       -5.6084738637
 H       -14.1579078410       -1.6449900173       -7.1239906141
 H       -11.0462601421        1.7161265395       -4.6331043778
 H       -10.9003501765        0.2778118458       -3.8855806871
 H       -10.9865344373        1.0406547533       -1.6063300764
 H       -11.8815075494        2.4435117712       -2.0038375359
 H        -7.8154972046        5.2414199525       -2.0779851254
 H        -8.7369344748        6.8969879202       -2.1778666123
 H        -8.9245783092        5.5837809706       -3.4063166562
 H       -10.7747036850        2.2180658128        0.2477434506
 H       -11.6504067243        3.7249149956       -0.0938017092
 H       -10.2321942326        3.8288349253        0.8580769706
 H        -8.1083769342        3.5742820068        0.6045491125
 H        -7.3143360858        3.8020804611       -0.8054079174
 H        -8.0310485853        2.1645696000       -0.4512220624
 H       -13.0445159658        0.8739640779       -7.4303869631
 H       -11.6063298703        0.6601399993       -6.6334922531
 H       -12.5574855840        2.2078187402       -6.4743202449
 H       -15.5192073399        0.0063721722       -4.5767230074
 H       -15.3728034710        0.0535511532       -6.3158247350
 H       -15.3331327857        1.5365664911       -5.3029193544
 H       -11.9839359342       -5.8461958838       -8.6514737077
 H       -11.3824842020       -6.0675735507       -6.9327413859
 H       -10.2822522919       -6.1455582415       -8.4494990058
 H       -10.1212749143       -4.4528124500       -6.0584014324
 H       -10.0816502193       -2.7144155756       -6.3827643208
 H        -8.9036071240       -3.7997350535       -7.0029177022
 H       -13.1248542533        0.1188190732      -13.1492157245
 H       -13.1181549291       -1.3984660066      -12.2460176666
 H       -12.8015851329       -1.4674062028      -13.9610077289
 H        -9.4916642126       -0.2678837110      -14.1420966629
 H       -10.8626407242        0.6860755932      -14.4558061160
 H       -10.8534596592       -1.0098589126      -14.8927232632
 H        -7.7347687388        4.1545114608       -9.5833154228
 H        -6.6675753597        3.9808824982       -8.1862181129
 H        -8.4085665101        3.6582691203       -8.1123858651
 H        -5.8430374146        1.0028368604      -10.4425503606
 H        -4.9792088581        2.1219775391       -9.4838484331
 H        -5.9279566668        2.6938699735      -10.8359311413
 H        -6.4619608113       -1.4340183539       -2.5365228017
 H        -6.8989969608       -0.0573485083       -3.1395040714
 H        -5.6288392169        0.0677303541       -2.0070113774
 H        -3.1978243587        0.1892958356       -3.6576441467
 H        -2.9190121770       -1.3088004448       -4.1269682972
 H        -3.4928497978       -1.0442114395       -2.3705804378
 H        -6.1117719602       -6.7487300388       -6.9692955200
 H        -6.4954330342       -7.0231108207       -8.6724465885
 H        -7.1299028389       -5.5198933434       -7.8649923401
 H        -3.1143271673       -6.3604707531       -9.4561350640
 H        -4.5914743287       -7.3128529087       -9.5748192400
 H        -3.8147612323       -7.2688049664       -8.0189556185
 H        -2.3313571944        0.4922696901      -12.1422976375
 H        -2.2478135075       -0.6073676232      -10.7734920995
 H        -3.7330084584        0.2906553244      -10.9377957986
 H        -5.1104349721       -0.2478292944      -13.4409225981
 H        -4.5888150764       -1.6311162365      -14.2500985247
 H        -3.5779779019       -0.1160422355      -14.1823126360
 H         1.8317312991       -4.4230026111      -14.4040370879
 H         1.6769824483       -5.3582741732      -12.9014101527
 H         3.2764852499       -5.1396684262      -13.6785192191
 H         3.1961944979       -4.3893841875      -10.8299743358
 H         1.4392412631       -4.2608225396      -11.0130532294
 H         2.3272837677       -2.9070793669      -10.5087690895
 H         9.7216306214        0.1771155747      -10.8158038882
 H         8.6087269682       -0.9820236333      -10.0430603664
 H         8.1292330552        0.5821649230      -10.3026481900
 H        10.0476017399        0.2820465244      -13.0608247454
 H         8.6809144021        1.4877197906      -12.9922476411
 H         8.7863766679        0.3187830572      -14.3292636300
 H        10.3493115348       -5.7850200282      -15.5715439385
 H        11.8569680318       -5.1445126096      -15.5508398092
 H        11.1723146292       -5.5760257001      -17.2194804509
 H        11.4331520231       -3.3829017736      -18.2627585303
 H        12.3588427885       -2.6052744575      -16.8125913117
 H        11.0525354428       -1.9032017988      -17.4866643619
 H         2.4148860653       -4.0528705334      -16.8321073497
 H         3.6351785628       -4.0589483926      -15.4969667099
 H         3.1543898723       -5.6213582695      -16.2447865136
 H         4.9342506473       -4.6956591408      -19.5800200771
 H         3.2590574229       -4.7637539914      -19.3214050898
 H         4.2982984047       -6.0918195439      -18.6387538762
 Na        6.3366971138       -2.6942425100      -14.7100543961
 Na       -7.7243629554       -1.8316152438      -10.5331798552
