232

 C         4.2729444648       -2.0538056845      -19.0042934001
 C         4.6467051572       -2.6835579537      -17.6378146862
 O         5.0427332975       -2.0234917858      -16.6712731133
 C         4.4076264103       -4.2015947478      -17.4621086222
 C         5.8247388325       -4.7662634623      -16.9644008228
 O         5.9471107509       -5.0833392855      -15.8234619803
 C         6.9790771593       -4.6458888451      -17.9510826109
 C         8.4360383478       -4.9039357568      -17.4564532914
 C         8.8779093577       -3.7651771110      -16.4847942041
 O         8.1706923198       -2.8059212811      -16.1246944300
 C        10.4127284720       -3.6582168283      -16.2341177612
 C        10.8793211711       -2.6493180441      -14.9820179345
 O        11.3359983836       -1.5308539830      -15.1981982030
 C        10.8078164497       -3.4134679902      -13.6914333436
 C        10.4125788425       -2.3437664153      -12.5271506053
 C         8.9119639766       -2.0317123611      -12.5151616567
 O         8.1527837917       -2.8971382335      -12.9173735159
 C         8.3517770454       -0.5428209094      -12.3531618101
 C         6.8168317105       -0.7126544199      -12.7568578653
 O         6.3848120869       -0.2607850775      -13.8132884760
 C         5.7435091495       -1.3381525326      -11.7244024353
 C         4.3252625437       -1.3643605508      -12.3149318024
 C         4.0148844362       -2.7828442615      -12.7136633203
 O         4.7273304192       -3.4617243660      -13.4659585597
 C         2.6893127428       -3.4427287394      -12.4230963712
 C         1.4443393903       -2.3935233423      -12.8607057267
 O         1.7940120222       -1.3190280369      -13.2624947906
 C        -0.0158505618       -2.7435541789      -12.7368523733
 C        -1.0730418894       -1.7316723001      -12.5915277314
 C        -2.5163179971       -2.2065163826      -13.0063603349
 O        -2.6416869472       -3.1501348256      -13.7280817419
 C        -3.6925013015       -1.2308208765      -12.5539376878
 C        -4.8542825710       -1.9730812921      -11.8009719054
 O        -5.4146474519       -1.3779140832      -10.8764933334
 C        -5.1678630327       -3.4452757913      -12.1294894492
 C        -4.5211573396       -4.3837684291      -10.9796329348
 C        -5.4266264092       -4.4761494607       -9.6961779513
 O        -6.4995754636       -3.8975354324       -9.5640473992
 C        -4.9939976039       -5.4249722499       -8.4905432708
 C        -4.2620387329       -4.5137130833       -7.4149060161
 O        -3.0398223246       -4.3852692565       -7.4739341319
 C        -5.1490095961       -3.7516536514       -6.4488128762
 C        -4.4127531533       -2.8560080988       -5.5735829872
 C        -5.4645277879       -2.1730507266       -4.5654327825
 O        -6.5713466326       -2.6922681797       -4.4061261933
 C        -5.0324088276       -0.8252748806       -3.9324714647
 C        -5.3056591310        0.2426068949       -4.9860590523
 O        -4.2895387388        0.7382626823       -5.4109417005
 C        -6.7672334374        0.5773052314       -5.4236010183
 C        -6.9043259581        1.5945724993       -6.5609432573
 C        -7.0408038358        1.0287620046       -7.9648591348
 O        -7.0337031800       -0.1411121323       -8.1325189852
 C        -7.2015501797        2.0328480923       -9.2218183090
 C        -8.2670683180        1.4227323983      -10.2802949908
 O        -8.3551418864        0.2549102310      -10.6101142638
 C        -9.4460482505        2.3587388982      -10.6646299331
 C       -10.2093565753        1.7466089246      -11.8854826989
 C       -11.0145295303        0.5178156644      -11.6836978231
 O       -11.7859216584        0.4008636584      -10.7598047266
 C       -11.0655518419       -0.6472216046      -12.8598003225
 C       -10.4246861710       -2.0172688678      -12.2564932149
 O        -9.1765198538       -2.1401135567      -12.4131774312
 C       -11.4266401898       -3.0090412238      -11.4649216480
 C       -10.7659526599       -4.1169649279      -10.7132594395
 C       -10.2500983981       -3.6841368369       -9.3573496838
 O        -9.3544612460       -2.9639383101       -9.2326119408
 C       -10.9993361467       -4.1464645633       -7.9944638780
 C       -12.2452738691       -3.1481331262       -7.6390183030
 O       -12.5689234054       -2.3443493537       -8.5217666470
 C       -13.0027859985       -3.4992759446       -6.3509307407
 C       -13.7780200362       -2.2016975487       -5.9403876102
 C       -12.8228247552       -1.2385912736       -5.2874656104
 O       -11.7362996956       -1.6360620894       -4.9247602092
 C       -13.2825882997        0.2695256478       -5.3080388766
 C       -12.7273940866        0.8710915438       -3.9786028986
 O       -13.4951807794        1.1953165468       -3.1335220611
 C       -11.1978064060        1.0081144507       -3.6749455203
 C       -11.0654811065        1.7238891219       -2.2823514270
 C        -9.7906154332        2.6307335186       -2.2514383908
 O        -8.9367310994        2.4402233633       -3.0268343847
 C        -9.6033424968        3.5821160184       -1.0499127984
 C        -9.7353031304        5.1357509620       -1.4693343158
 O       -10.6256708198        5.8284552839       -1.1078924034
 C        -8.4149028142        5.7418368968       -2.2907294435
 C       -10.7255155179        3.2907074341        0.0175261968
 C        -8.1881770135        3.3773541817       -0.5332047289
 C       -12.5297217078        0.9290694058       -6.4813283237
 C       -14.8045353712        0.4717596420       -5.4825169130
 C       -11.5542633959       -5.5940951765       -7.9789012824
 C       -10.0111097215       -4.0058569980       -6.7763117952
 C       -12.5569683318       -0.8415520613      -13.1216215290
 C       -10.2851825183       -0.1625361834      -14.1333736122
 C        -7.2686007318        3.5079388929       -8.8768406911
 C        -5.7186823150        1.8414803298       -9.8196784619
 C        -5.8464602930       -0.7059315969       -2.5958431809
 C        -3.5014021081       -0.8762268744       -3.3906678985
 C        -6.1327934740       -6.1661057571       -7.9002500910
 C        -3.9218120256       -6.3568717322       -8.9540856253
 C        -3.2857970815       -0.0592507368      -11.5334559900
 C        -4.0535954359       -0.5394303519      -13.9288380200
 C         2.4721132753       -4.8427984323      -13.1593270791
 C         2.4993198662       -3.6617311068      -10.9589131849
 C         8.4200520436       -0.1791130181      -10.8705357909
 C         8.9144145476        0.4726100696      -13.3514722294
 C        10.9613865548       -5.0477176251      -15.8408981204
 C        10.9180439067       -3.2304564910      -17.6589870600
 C         3.4554720814       -4.7136606450      -16.2894887601
 C         3.9923888348       -5.0312299152      -18.7510120268
 H         3.1937767522       -2.0905474477      -19.0650886097
 H         4.7071609581       -2.6495839357      -19.8069341410
 H         4.5902492911       -0.9759543609      -19.1713176477
 H         6.9587407470       -3.8132120676      -18.6734620532
 H         6.8772321533       -5.5350642423      -18.6576752007
 H         9.1278997604       -5.1313629395      -18.2994742409
 H         8.2212118511       -5.7257838707      -16.7287257020
 H        11.6821406219       -4.0490990646      -13.5469042343
 H         9.8863818734       -4.0269328103      -13.8001348483
 H        10.9464329965       -1.3851272476      -12.7160290082
 H        10.6869543598       -2.6562892849      -11.5127890947
 H         5.6598981134       -0.6109421784      -10.9125624154
 H         6.1086401129       -2.2934165658      -11.5076328069
 H         4.1843567123       -0.8008275565      -13.1553847314
 H         3.5576625959       -0.9926186021      -11.6593826788
 H        -0.1596367259       -3.5386664550      -11.9444981101
 H        -0.1878206175       -3.2548346238      -13.7151243455
 H        -0.7788432995       -0.7942302489      -13.1231246948
 H        -1.1182032225       -1.2884235670      -11.6434624820
 H        -4.8450450818       -3.6973294874      -13.1889435641
 H        -6.2694350221       -3.5524393540      -12.1066299590
 H        -3.4402111909       -4.0706133729      -10.7351744912
 H        -4.5862910534       -5.4611524963      -11.3474696347
 H        -5.8691864771       -4.3515082675       -5.8915821865
 H        -5.8405016425       -3.1035614484       -7.0290120801
 H        -3.7975124698       -2.1398402315       -6.1699572761
 H        -3.8144706612       -3.3918779957       -4.9299171117
 H        -7.3119066492        1.0594801679       -4.5658292893
 H        -7.2813589107       -0.3280214214       -5.7259425618
 H        -5.9871550932        2.2973980063       -6.6551057635
 H        -7.9222585680        2.1194760004       -6.3276490751
 H        -9.1396134879        3.3926057459      -10.8266346554
 H        -9.9820113444        2.5363266484       -9.6925385922
 H        -9.4051985799        1.4662615713      -12.5959844539
 H       -10.7460740767        2.4537311623      -12.5052168934
 H       -11.9647729560       -3.5306121229      -12.2490260953
 H       -12.1966339295       -2.4601312987      -10.8772898639
 H        -9.9205774751       -4.4236414737      -11.3631261546
 H       -11.5234776479       -4.8825918374      -10.6196896466
 H       -12.4133022783       -3.9493128368       -5.5563841096
 H       -13.7977890973       -4.1976774840       -6.7484348270
 H       -14.6563388711       -2.4310361596       -5.2376982038
 H       -14.2577416266       -1.7152162258       -6.7988393960
 H       -10.7805268689        1.5621298099       -4.5031312971
 H       -10.6107345645        0.0606572371       -3.8083214912
 H       -10.9387356577        1.0525257563       -1.4485247104
 H       -11.9969216534        2.2118000597       -2.0783291338
 H        -7.8071967681        4.9213143824       -2.6898974284
 H        -7.9932972317        6.5035757645       -1.6115923056
 H        -8.8401562302        6.3340402628       -3.0729091886
 H       -10.5457881001        2.2864579398        0.3953834139
 H       -11.6857302498        3.3865514705       -0.4771342821
 H       -10.7977096959        3.9388906093        0.8304943068
 H        -7.5277207622        4.2018494321       -0.6784219966
 H        -7.6268527222        2.7715684750       -1.2352435340
 H        -8.1796532441        2.9243020568        0.4738133845
 H       -12.5933867449        0.3730639059       -7.4818908344
 H       -11.5017955588        1.0870262299       -6.3169353501
 H       -12.9665454402        1.8457365592       -6.7698291695
 H       -15.4696510844       -0.3373595775       -5.2094943170
 H       -15.1192729375        0.7350515661       -6.4391546389
 H       -15.1779250047        1.2877805001       -4.8562959095
 H       -12.3887812197       -5.7587962459       -8.6797798639
 H       -11.8063094135       -5.8302548095       -7.0028400142
 H       -10.7413701263       -6.2369618744       -8.2779858523
 H       -10.3696465265       -4.5987965208       -5.9110299897
 H        -9.8660366606       -2.9014818854       -6.6055983826
 H        -9.0070481383       -4.3966439868       -7.0441844429
 H       -12.9770945837       -0.0932357442      -13.7189400348
 H       -13.1761604219       -0.9034094513      -12.1961955251
 H       -12.7320325818       -1.8084001334      -13.5886013317
 H        -9.1241806508       -0.1745277739      -13.9731899489
 H       -10.5493960414        0.7316914813      -14.5951638582
 H       -10.4632422247       -0.9745883025      -14.8675817985
 H        -7.6421916740        3.9965718118       -9.8108350559
 H        -6.3055283704        3.9140863666       -8.4311420239
 H        -8.0871770781        3.7206371338       -8.1899983489
 H        -5.3272404362        0.8627286896      -10.0442228926
 H        -4.9076717054        2.3154019503       -9.2283640260
 H        -5.6579299413        2.3510148754      -10.8477464942
 H        -5.9684549924       -1.7666946173       -2.0082876168
 H        -6.8847109785       -0.5021458746       -2.8135359030
 H        -5.4092865779        0.1254794904       -2.0768023479
 H        -3.2987329801       -0.0308110242       -2.7066282494
 H        -2.8833010254       -0.7801377715       -4.2288409769
 H        -3.5139849978       -1.8253430852       -2.8658349773
 H        -5.8970752324       -6.4970049439       -6.9274008322
 H        -6.3662231728       -7.0660018969       -8.5592033203
 H        -6.9756719170       -5.4500122824       -7.7193811932
 H        -3.0450256045       -5.7585697578       -9.1922162528
 H        -4.1798029804       -7.1009377407       -9.7935334634
 H        -3.5720116592       -6.9676769897       -8.1459485551
 H        -2.3404517270        0.3689093147      -11.8313388995
 H        -3.1884340351       -0.4875048085      -10.4685814349
 H        -4.0924988326        0.6002860423      -11.6981451889
 H        -4.4010563768        0.5210009215      -13.6784062244
 H        -4.8882203962       -0.9837542082      -14.4303840076
 H        -3.2424481357       -0.5236439406      -14.7065507327
 H         2.1570718248       -4.6240292500      -14.1896111537
 H         1.6343958536       -5.4154936004      -12.7215812091
 H         3.4316547053       -5.4201269869      -13.1624816534
 H         3.3863992334       -4.2560658568      -10.6155681681
 H         1.6049643879       -4.2941905960      -10.7852733590
 H         2.4501735053       -2.6689257207      -10.4352262460
 H         9.1591709103        0.5823384073      -10.6528122456
 H         8.6439977726       -0.9784188514      -10.1946713216
 H         7.4804704189        0.2580914820      -10.4649999568
 H        10.0604740290        0.5735668255      -13.2255451518
 H         8.4106784812        1.4096126256      -13.1580931987
 H         8.5361253997        0.1704939671      -14.3071241724
 H        10.2838199472       -5.5356600188      -15.1401506589
 H        11.9795895633       -4.9100785628      -15.3053769888
 H        11.1307297891       -5.5353781234      -16.7653368768
 H        10.4596489388       -3.8943187884      -18.4419785630
 H        11.9836464058       -3.3127890345      -17.6912841850
 H        10.8182937042       -2.1954255157      -17.9088058298
 H         2.4887153103       -4.4198432337      -16.3896444981
 H         3.8174413931       -4.3865034263      -15.3651841312
 H         3.4980272350       -5.7689769130      -16.3421083996
 H         4.5718830372       -4.6050495058      -19.6433780092
 H         2.9612022551       -4.8251195787      -19.0813968741
 H         4.1512209731       -6.1393195037      -18.5835615238
 Na        6.4292031208       -2.5525782448      -14.7728391754
 Na       -7.5990102905       -1.9593335940      -10.3222829717
