232

 C         4.2988862196       -2.1165858265      -18.9947031228
 C         4.4994275417       -2.6899407896      -17.6118467794
 O         4.9760337445       -1.9349801334      -16.7779627760
 C         4.4101355735       -4.2249876816      -17.4428508556
 C         5.8322176542       -4.7001147896      -17.0557973516
 O         6.0150342553       -4.9874276370      -15.8580655363
 C         6.8979762034       -4.7806283968      -18.0481182912
 C         8.3627134353       -4.9362329091      -17.3183588815
 C         8.8822180190       -3.7433761437      -16.4622426602
 O         8.1662145754       -2.7998152031      -16.1037906446
 C        10.5265136600       -3.7181224472      -16.3536880923
 C        10.9058222425       -2.6856477621      -15.1093114331
 O        11.3414637771       -1.5758583475      -15.2766520474
 C        10.8680692097       -3.2499214901      -13.6386161286
 C        10.4821427054       -2.1739215010      -12.6209775955
 C         8.9324136212       -2.0162424061      -12.6902269430
 O         8.2663256305       -3.0036985267      -12.8726862974
 C         8.2384037932       -0.6359087531      -12.4178018229
 C         6.7944469697       -0.6944569584      -12.7562417104
 O         6.4005960644       -0.3520091502      -13.8862271844
 C         5.7838588165       -1.3031930928      -11.7348302077
 C         4.3436197935       -1.4421530799      -12.3415077585
 C         3.9431460298       -2.8394190471      -12.8286654150
 O         4.7682908926       -3.4860864912      -13.5251955810
 C         2.5676497007       -3.3877507129      -12.2117982509
 C         1.4961986253       -2.3889007301      -12.8049850275
 O         1.8083650142       -1.3481437162      -13.2989871903
 C        -0.0764785579       -2.8214134463      -12.7517277119
 C        -1.0604472535       -1.7016479324      -12.5433715363
 C        -2.4838178603       -2.0766200999      -12.9562600977
 O        -2.6419660376       -3.0312362331      -13.6614096452
 C        -3.7464134008       -1.1343581441      -12.6115004367
 C        -4.9049250752       -1.9655271916      -11.8795041658
 O        -5.4149822492       -1.3721622258      -10.9597538005
 C        -5.2824278293       -3.4337654573      -12.1096714336
 C        -4.7646694260       -4.3736859552      -11.0749230292
 C        -5.5100004632       -4.4892359000       -9.7560164125
 O        -6.5024158115       -3.8389029660       -9.5563153237
 C        -4.8740420820       -5.3404098279       -8.5943888823
 C        -4.1506707647       -4.3576175039       -7.6086974586
 O        -2.9264006451       -4.3382281335       -7.4924270812
 C        -5.0952530052       -3.7420681032       -6.5482011912
 C        -4.4847614448       -2.6935103320       -5.6587116396
 C        -5.4383095202       -2.1585210766       -4.5310413770
 O        -6.5274239363       -2.6726112000       -4.3926989454
 C        -4.9328367617       -0.9402238191       -3.7832218316
 C        -5.2423834070        0.2265728071       -4.8949823490
 O        -4.3688121970        0.7999019500       -5.4909510323
 C        -6.7602590074        0.6226230928       -5.2685787009
 C        -6.9060201100        1.6009208005       -6.5218006638
 C        -7.0631976709        0.8897671170       -7.9348900666
 O        -6.9929207562       -0.3394334081       -8.1123271330
 C        -7.1531174879        1.9245101013       -9.2204084500
 C        -8.3273573038        1.3527810639      -10.0722028738
 O        -8.3751745345        0.2045415680      -10.4539674899
 C        -9.4127227575        2.2612853433      -10.6384844120
 C       -10.0104597278        1.8008200762      -11.9288460010
 C       -11.0326536167        0.4733293356      -11.6653012744
 O       -11.6735382394        0.4871976505      -10.6960423606
 C       -11.1158939989       -0.6391348326      -12.8275538662
 C       -10.5000517297       -1.9565954503      -12.1464444787
 O        -9.3359801442       -2.2728003934      -12.2365325039
 C       -11.4939372277       -2.9389306272      -11.6045300350
 C       -10.8243666963       -4.1470021718      -10.6483294238
 C       -10.3878042176       -3.6581754606       -9.3107457508
 O        -9.4253093334       -2.8823935031       -9.1949930997
 C       -11.0306970531       -4.1193221310       -7.9623807008
 C       -12.3697346182       -3.2663971751       -7.7638043560
 O       -12.8109254636       -2.4524146506       -8.5256191050
 C       -13.0056811270       -3.5898803896       -6.4004394077
 C       -13.8580455097       -2.3786942258       -5.8058965114
 C       -12.8071037831       -1.2891223672       -5.2984136671
 O       -11.7375143908       -1.6442002739       -4.8636162570
 C       -13.2121805090        0.2583547069       -5.3009423665
 C       -12.6894413982        0.9305856804       -3.9645664010
 O       -13.4907790967        1.3331778956       -3.1332200178
 C       -11.1922589787        1.0302815888       -3.6345702571
 C       -11.0425757850        1.6987848639       -2.2517992622
 C        -9.7912542352        2.5844384272       -2.1477571012
 O        -8.8738757050        2.4834774037       -3.0322344839
 C        -9.5564676675        3.5881353957       -1.0439225364
 C        -9.6202981212        5.1146742294       -1.5460719639
 O       -10.6211608179        5.7488385993       -1.3334933681
 C        -8.4960787073        5.6656539922       -2.3275428892
 C       -10.6610020206        3.4458572608        0.1463537531
 C        -8.1329754561        3.3713064347       -0.3166096214
 C       -12.4239891419        0.8910549006       -6.5773808717
 C       -14.6998272773        0.4607821904       -5.4790473109
 C       -11.6863704802       -5.6401813566       -8.1174831135
 C       -10.0364852296       -4.1711982654       -6.8304374511
 C       -12.4913732017       -0.8928451284      -13.4423941264
 C       -10.2878146908       -0.2156090876      -14.0228115567
 C        -7.2773919016        3.3637667398       -8.9500828504
 C        -5.7372552191        1.7172691794       -9.8728426221
 C        -5.8639794093       -0.6959729768       -2.5102970100
 C        -3.4914185988       -0.8823653720       -3.4073223892
 C        -6.1089275033       -6.1730374511       -7.9769844043
 C        -3.7937183053       -6.4051240747       -8.9649697453
 C        -3.3739308132        0.0788869855      -11.6992000715
 C        -4.1061005593       -0.4444287146      -13.9480712439
 C         2.3522781385       -4.8223725185      -12.9066527944
 C         2.6785370294       -3.5298484687      -10.6108137449
 C         8.4252341937       -0.1125663102      -10.9155779271
 C         9.0185807949        0.4696394572      -13.3117325730
 C        11.0075492755       -5.1071180958      -15.8305410861
 C        10.9128909126       -3.2249737955      -17.6953148845
 C         3.4457694047       -4.5693779447      -16.3278305082
 C         3.9388478792       -4.9832460534      -18.7552740755
 H         3.2439574872       -2.2696689830      -19.2835117530
 H         4.8746998929       -2.6391160788      -19.6503925127
 H         4.5276375556       -1.0309815906      -19.0597681396
 H         6.9072375501       -3.8220252875      -18.6359216907
 H         6.8399751805       -5.5556541650      -18.8464910591
 H         9.0965112079       -5.0767695227      -18.1358437912
 H         8.2785521957       -5.7982053830      -16.5986029427
 H        11.9109230969       -3.5641521717      -13.4422204333
 H        10.1928592812       -4.0825959946      -13.4544342841
 H        11.1823992084       -1.3299222252      -12.6515737060
 H        10.5152919968       -2.6460911383      -11.6062579191
 H         5.6109080984       -0.5618299317      -10.9633060651
 H         6.2855691003       -2.2024598646      -11.4596630198
 H         4.1385465655       -0.7776912113      -13.1389209651
 H         3.6242913311       -1.1349794548      -11.6391511368
 H        -0.2518895652       -3.5477349877      -11.9791270933
 H        -0.2699042956       -3.3061775914      -13.7445818297
 H        -0.7500703653       -0.8298292221      -13.0786425240
 H        -1.0588430120       -1.2329989401      -11.5592351514
 H        -4.9779349325       -3.7073567088      -13.0922467371
 H        -6.3943204340       -3.4509058250      -12.0986965976
 H        -3.7740549922       -3.9066796076      -10.8376033690
 H        -4.5932204409       -5.3817186388      -11.5489111676
 H        -5.3716556025       -4.5824762736       -5.8631982037
 H        -6.1150907494       -3.4107837697       -6.9036028462
 H        -4.2270969196       -1.8249058153       -6.2593919518
 H        -3.5780545409       -3.0294774200       -5.1865765138
 H        -7.2820455766        1.0685641846       -4.3951596453
 H        -7.2512184113       -0.2982447108       -5.5965573609
 H        -5.9481935098        2.1755668149       -6.7306541579
 H        -7.7943899950        2.2058714946       -6.3736750803
 H        -9.0465812550        3.3639443105      -10.6183350037
 H       -10.1869598083        2.3868918831       -9.8731407195
 H        -9.3034552604        1.8149331763      -12.7395975970
 H       -10.6912571202        2.6129205492      -12.3414446556
 H       -12.1234643257       -3.3705793953      -12.3487045126
 H       -12.1659299034       -2.3698696511      -10.9441296176
 H        -9.9792661732       -4.5602762340      -11.1193279117
 H       -11.6275157759       -4.8629669723      -10.5470215497
 H       -12.1883456974       -3.7216759031       -5.6428677641
 H       -13.6649418081       -4.5581693101       -6.4583176521
 H       -14.2253426547       -2.7796764225       -4.8250635194
 H       -14.7925121266       -2.0231539284       -6.2925761544
 H       -10.5646761636        1.3680061887       -4.4243626117
 H       -10.8659670396       -0.0450844198       -3.5913190657
 H       -11.0075110794        0.9690958516       -1.4512506110
 H       -11.9537387863        2.2943247038       -2.0948562063
 H        -8.2393424586        4.9499479188       -3.0981348046
 H        -7.7547019011        5.9271161824       -1.6356898978
 H        -8.8748062119        6.5949553783       -2.6902161246
 H       -10.4558971152        2.4273477084        0.5618670321
 H       -11.7085835075        3.5942293295       -0.2003209190
 H       -10.5602950985        4.1092367135        1.0120687449
 H        -7.3394969621        3.9329405255       -0.7634236052
 H        -7.7119777102        2.4544618945       -0.5920522254
 H        -8.2556252539        3.3522213308        0.7582577332
 H       -12.5214775433        0.4004599400       -7.5290535506
 H       -11.3929990730        1.0527052211       -6.4062152604
 H       -12.8410759495        1.8987689216       -6.8549868651
 H       -15.2983037307       -0.2601430362       -5.1017607464
 H       -15.0413923407        0.6421762009       -6.4659416628
 H       -14.9870545247        1.3427922603       -4.9950680765
 H       -12.3547736571       -5.5745661479       -8.9334099362
 H       -12.2548089539       -5.8538367638       -7.2433131368
 H       -10.9987020887       -6.4599277007       -8.2522256650
 H       -10.4480995446       -4.5300935747       -5.8320472657
 H        -9.3397291795       -3.2794870170       -6.8201386602
 H        -9.4095244535       -5.0012436377       -7.1774809210
 H       -12.7982527428       -0.2106148342      -14.1777967697
 H       -13.2205611801       -0.9283077880      -12.6952496633
 H       -12.5137591640       -1.8972966589      -13.8455369182
 H        -9.2324713758       -0.0168411347      -13.9086599093
 H       -10.7522138136        0.6985864629      -14.4734776354
 H       -10.4087773088       -1.0134437071      -14.8316214723
 H        -7.0919727091        3.9016631189       -9.8434161320
 H        -6.6102956861        3.6251413110       -8.0562584913
 H        -8.3289345247        3.5862890780       -8.6765305813
 H        -5.4810325216        0.6930731425      -10.1853207821
 H        -4.9335770288        2.0468812218       -9.2621623759
 H        -5.6320824957        2.2719980644      -10.8061713055
 H        -5.6135272513       -1.4546746385       -1.7147615228
 H        -6.9595364839       -0.9894402685       -2.7528570699
 H        -5.7317013259        0.4385916920       -2.2205590615
 H        -3.3605666328       -0.2906829461       -2.4625850344
 H        -3.1105890579       -0.3478206307       -4.2779183099
 H        -3.1171613356       -1.9033917807       -3.2900543949
 H        -5.7170836521       -6.5798337743       -7.0783561952
 H        -6.4715662328       -6.9301183923       -8.6261276748
 H        -6.8244037336       -5.5035833834       -7.5346150982
 H        -2.8169318922       -6.0476913897       -9.0960157768
 H        -4.1137747559       -6.9511623343       -9.7919516980
 H        -3.6646591922       -7.1523037774       -8.1742615707
 H        -2.5085816135        0.4642141116      -12.2548826409
 H        -3.0558409426       -0.2081192052      -10.7138154425
 H        -4.2300145605        0.7693565062      -11.8599237216
 H        -4.5534571556        0.5224746485      -13.7655820327
 H        -4.8731363568       -1.0857321551      -14.4846243659
 H        -3.2894930888       -0.4012989000      -14.7399683123
 H         2.1309670342       -4.6185976778      -13.9551513730
 H         1.6031476317       -5.5139440064      -12.5467894614
 H         3.3382022283       -5.2169291116      -12.8813966717
 H         3.5590200358       -4.2354587093      -10.5186523937
 H         1.7871413179       -4.1503319627      -10.2579402611
 H         2.8443775851       -2.5706719708      -10.0781963482
 H         9.4012932496        0.4690277128      -10.7675318556
 H         8.4308698718       -0.8425686419      -10.1422678417
 H         7.6537991241        0.6186939563      -10.6682532633
 H         9.9146908420        0.5708437839      -12.7655874946
 H         8.4525644892        1.4315144456      -13.0741152521
 H         9.0480597877        0.3032002215      -14.3655934970
 H        10.5761299866       -5.1454175231      -14.8640216173
 H        12.1068962252       -5.0614791854      -15.7686759064
 H        10.7683590960       -5.9634770944      -16.5454283856
 H        10.3969881091       -3.7259671402      -18.4953868030
 H        12.0598659121       -3.2403488398      -17.9554938642
 H        10.7122849139       -2.2000262670      -17.7234692543
 H         2.4608237081       -4.2308056188      -16.5761570797
 H         3.8111517046       -3.9274505205      -15.5097455754
 H         3.3886833661       -5.6143033143      -16.0290704931
 H         4.5416988270       -4.7639304285      -19.6221214748
 H         3.0039740874       -4.4923950577      -19.0083211447
 H         3.7561576245       -6.0567823148      -18.5948991731
 Na        6.4290431542       -2.4959219032      -14.8685702403
 Na       -7.5464474868       -1.9141468748      -10.1637397834
