232

 C         4.1938002703       -1.9382935518      -19.1660481334
 C         4.5484064889       -2.4716332415      -17.7977379738
 O         4.9337342020       -1.7714433274      -16.8510436762
 C         4.4431304433       -4.1391365215      -17.4907442518
 C         5.7809385326       -4.5112812467      -16.9020938886
 O         5.8237073283       -4.7405986574      -15.7028339055
 C         6.9706587121       -4.7391085505      -17.8154181846
 C         8.4243768760       -5.0793687298      -17.2894787624
 C         9.1145433104       -3.8939305188      -16.5736959221
 O         8.4254611370       -2.9456756267      -16.1305449852
 C        10.7205245095       -3.8654278006      -16.4964274766
 C        10.9715615168       -2.7831695946      -15.2562775910
 O        10.9918855047       -1.5905382550      -15.5013739751
 C        11.0873598607       -3.2469529882      -13.8061099080
 C        10.5629088564       -2.0175618909      -12.9042355284
 C         8.9693761171       -1.8948617898      -12.9345473109
 O         8.2565481533       -2.8315575249      -13.1900959652
 C         8.2986459873       -0.5292759111      -12.5446639950
 C         6.8436377627       -0.7332724036      -12.8528148483
 O         6.5319426010       -0.5067607175      -14.0391215220
 C         5.7679449063       -1.3096839423      -11.8330860260
 C         4.3034810287       -1.3319187048      -12.4096052711
 C         3.8574123049       -2.7670367508      -12.6042318841
 O         4.4268198338       -3.5161873644      -13.4436041012
 C         2.5618272134       -3.2475072795      -11.9468892333
 C         1.3816627852       -2.3819787219      -12.5396956708
 O         1.5714397655       -1.3916605747      -13.1472577706
 C        -0.0803496960       -2.8326014160      -12.2837561579
 C        -1.1082549719       -1.7007105829      -12.3893494186
 C        -2.4696625165       -2.1506305004      -12.9043192231
 O        -2.5879122084       -3.1629088487      -13.5248301775
 C        -3.6318265842       -1.1483187657      -12.6725973874
 C        -4.7694145176       -1.8120126775      -11.7705391228
 O        -5.4297598268       -1.1319487765      -11.0247789956
 C        -5.1796091372       -3.2509100854      -12.1363415024
 C        -4.7250353228       -4.3963363317      -11.2316584425
 C        -5.4028158705       -4.2901683212       -9.9616233893
 O        -6.4065011964       -3.6431456915       -9.6540661497
 C        -4.7634220148       -5.3013164574       -8.9063147446
 C        -4.1484521660       -4.2408359326       -7.8321628046
 O        -2.9763469046       -3.9286659178       -7.8223726657
 C        -5.0478444664       -3.7186216825       -6.7240913554
 C        -4.4946969263       -2.4972104020       -5.9275121987
 C        -5.2860506994       -2.1993685084       -4.6423223013
 O        -6.2822965965       -2.8263598296       -4.3772612101
 C        -4.9459513938       -0.7867471843       -3.8162574466
 C        -5.2517442497        0.3130342013       -4.9650952302
 O        -4.4366240720        0.9833679340       -5.5412787236
 C        -6.7948104655        0.5361086643       -5.1973072258
 C        -7.0077319497        1.4014241901       -6.4106394017
 C        -7.1777399225        0.6922301777       -7.7219902541
 O        -7.0230843253       -0.5236368762       -7.7400512836
 C        -7.3038377848        1.5886532087       -8.9793369505
 C        -8.5398264183        1.2011092867       -9.9648772063
 O        -8.5998377548        0.0523810876      -10.3700845874
 C        -9.4472699474        2.2629743077      -10.5139456505
 C        -9.9227136588        1.7067381422      -11.8736965832
 C       -10.8254279174        0.4209033238      -11.7556874541
 O       -11.6052730908        0.3309872803      -10.8612777802
 C       -10.8540980079       -0.6415494600      -12.8453418445
 C       -10.4934956711       -1.8351968324      -11.9330344159
 O        -9.2945813453       -2.0901429817      -11.7402933327
 C       -11.6071150764       -2.6406541117      -11.3859150149
 C       -11.1110928974       -3.9689190341      -10.6995365236
 C       -10.6266310237       -3.6373726131       -9.1903976270
 O        -9.8130455984       -2.8024456700       -9.0228129008
 C       -11.3402252252       -4.3877858344       -8.0540525650
 C       -12.6002395061       -3.5584585621       -7.6294333028
 O       -13.1765426791       -2.8142517134       -8.3967867134
 C       -13.2027524831       -3.7992295397       -6.1251698686
 C       -13.7303135876       -2.3836688489       -5.6953826460
 C       -12.6777592957       -1.3239788371       -5.1031211057
 O       -11.5636421862       -1.6883364410       -4.8071520511
 C       -13.0027967653        0.1863566514       -5.2004985020
 C       -12.6911613709        1.0320360016       -3.8707742281
 O       -13.5091327202        1.6773061408       -3.2344697086
 C       -11.1820490986        1.1079807326       -3.5413780933
 C       -11.0644569284        1.8828606974       -2.1846862067
 C        -9.6668378906        2.5649817286       -1.9940488247
 O        -8.8139355071        2.4908716848       -2.8193870529
 C        -9.5078149945        3.5830690885       -0.8500266651
 C        -9.5811995306        4.8876296468       -1.7289980143
 O       -10.6308593847        5.4476555953       -1.8573394909
 C        -8.3506243117        5.3636888523       -2.5384234797
 C       -10.6380631761        3.4574802777        0.2198231608
 C        -7.9976888166        3.3738235890       -0.2305106728
 C       -12.1177051596        0.6960188501       -6.4404358920
 C       -14.4844644516        0.4758236362       -5.5151688097
 C       -11.8428709175       -5.8216504438       -8.5165655583
 C       -10.2982904766       -4.5363782423       -6.9059048524
 C       -12.3304272489       -0.4767768106      -13.3553980993
 C        -9.8557443354       -0.5658657792      -14.0061101602
 C        -7.3884255205        3.1069867294       -8.5249294790
 C        -6.0952014266        1.6018567259       -9.8376909235
 C        -5.9035047852       -0.7033919275       -2.6555988515
 C        -3.4627932541       -0.7041263265       -3.5105867885
 C        -5.8182632893       -6.2618634382       -8.1288562976
 C        -3.6333545844       -6.2136877199       -9.4392426432
 C        -3.2637384169        0.2415340539      -12.1808411534
 C        -4.3527580136       -0.8589208381      -14.0542883742
 C         2.3797308684       -4.7920986478      -12.1813744678
 C         2.5176999953       -3.0019489125      -10.4637976196
 C         8.6492479531       -0.2399117308      -10.9831992220
 C         8.8438728504        0.7043459158      -13.4616484510
 C        11.2573188456       -5.2281085683      -16.1883993186
 C        11.2473508818       -3.2983424504      -17.7602106388
 C         3.3670264797       -4.2411968145      -16.3957610911
 C         4.0644695808       -5.0682959548      -18.7539276253
 H         3.2829056409       -2.4677546444      -19.5450067233
 H         4.9535084110       -2.1350443738      -19.8809238392
 H         4.0807419662       -0.7802013293      -19.0629444979
 H         7.1447075937       -3.8729628067      -18.4223231638
 H         6.6831363790       -5.5214017769      -18.5404905821
 H         9.0095133704       -5.5032891064      -18.1081206627
 H         8.2192242422       -5.7776494372      -16.4733540464
 H        12.1085693473       -3.5197243170      -13.4882020370
 H        10.4708697417       -4.1332544944      -13.5442043116
 H        11.0668917727       -1.0920123018      -13.2044007136
 H        10.8051283659       -2.2348190881      -11.8776969523
 H         5.8325783673       -0.7433138786      -10.8610564928
 H         6.0815813190       -2.3471249933      -11.7388652359
 H         4.2827219851       -0.9325853043      -13.4412619138
 H         3.4880617179       -0.7337367138      -11.9207423190
 H        -0.2922672659       -3.3738615396      -11.3390324927
 H        -0.2456857046       -3.4476895103      -13.1845844677
 H        -0.6573091038       -0.8482654468      -13.0211716029
 H        -1.2724409676       -1.1946821304      -11.4607598040
 H        -4.6647846503       -3.3901158830      -13.1108396975
 H        -6.2834461580       -3.3630079806      -12.2453860194
 H        -3.6353783054       -4.2508051631      -11.1191469869
 H        -4.9397732372       -5.3550316644      -11.7666408370
 H        -5.2593342263       -4.5276247892       -6.0331666531
 H        -5.9900515570       -3.4476016400       -7.2380301096
 H        -4.6365260921       -1.5788667124       -6.5944428688
 H        -3.4486109849       -2.4850535544       -5.8160379464
 H        -7.2055690664        0.9810339587       -4.2633843557
 H        -7.1339621957       -0.4687689556       -5.3198298819
 H        -6.1201109447        2.0969013918       -6.5626515987
 H        -7.9494745870        2.0299976355       -6.3967874703
 H        -8.7983428026        3.1299691297      -10.5624819413
 H       -10.1955861686        2.6330156236       -9.8435714443
 H        -9.0961716738        1.5465441584      -12.5405655609
 H       -10.3809191048        2.4525969533      -12.4899668091
 H       -12.3881497480       -2.8160744023      -12.1306627726
 H       -12.1770176241       -2.1505119474      -10.5193481168
 H       -10.1954852662       -4.2786707014      -11.3030707535
 H       -11.9038508669       -4.7255874814      -10.9150093954
 H       -12.4900886301       -4.1166373553       -5.4608977788
 H       -14.0152944582       -4.4999813295       -6.2203454264
 H       -14.6201441948       -2.4561532117       -5.0184853106
 H       -14.2287937453       -1.9285218473       -6.5442550985
 H       -10.6085229436        1.5714369566       -4.3524981599
 H       -10.7435359661        0.0613570297       -3.4127692008
 H       -11.1664831271        1.1417343758       -1.3851946253
 H       -11.8127865534        2.6774552070       -2.0698745373
 H        -8.7549333258        5.3029810275       -3.5999598926
 H        -7.5481723668        4.5966159223       -2.4061234496
 H        -8.0660538850        6.3964900494       -2.2751265635
 H       -10.6640234011        2.4786768775        0.6423335790
 H       -11.5774824805        3.8326350471       -0.1509367787
 H       -10.3962222206        4.0134139767        1.0509926322
 H        -7.4564336422        2.4771497682       -0.5877988787
 H        -7.9890667189        3.4211710300        0.8661407992
 H        -7.4926407614        4.3655211289       -0.4796352806
 H       -12.5909038660        0.4842253197       -7.4506995072
 H       -11.1314908331        0.3238724319       -6.4212225252
 H       -11.9604401755        1.7732128103       -6.4609274182
 H       -15.1898882339        0.4690303112       -4.6637389981
 H       -14.9724303179       -0.2185837116       -6.2639699579
 H       -14.5802219944        1.4381921590       -6.1319356166
 H       -12.8832500704       -5.6874846318       -8.9508119541
 H       -11.8885214088       -6.5473191210       -7.7299136508
 H       -11.1248336641       -6.2052743903       -9.2859126886
 H       -10.8790656904       -4.7492154913       -6.0290624645
 H        -9.6565176141       -3.6769835367       -6.7553933587
 H        -9.6773478925       -5.3566634598       -7.0815464878
 H       -12.3387474754        0.5420940000      -13.7162271931
 H       -13.0247154251       -0.5086671368      -12.4666571348
 H       -12.8035152833       -1.0987230327      -14.1946710797
 H        -8.8466338030       -0.8293862837      -13.6423849639
 H        -9.8291334020        0.3850314830      -14.4264594430
 H       -10.0659120615       -1.2933905561      -14.7761052371
 H        -7.7969316455        3.6562371206       -9.3506923864
 H        -6.2705543088        3.4296561227       -8.4201508295
 H        -7.9465719616        3.1946066547       -7.6151688675
 H        -5.8422117798        0.5686951380      -10.1622193159
 H        -5.2178983897        1.8918046183       -9.2429763798
 H        -6.0449411298        2.1895849684      -10.8035749887
 H        -5.3477839254       -0.7718325396       -1.7067281673
 H        -6.6078031467       -1.4658280658       -2.8227455528
 H        -6.4966509137        0.2114618784       -2.5161622556
 H        -3.4875881142       -0.0648913672       -2.6236957649
 H        -2.8817980539       -0.4291427264       -4.3413619871
 H        -3.2126368508       -1.7029105105       -3.1845203346
 H        -5.5245788117       -6.7451474103       -7.2226654381
 H        -6.1747368076       -6.9742941773       -8.9455503818
 H        -6.7687263478       -5.6975747405       -7.8075566010
 H        -2.7416238835       -5.6641351065       -9.8027685710
 H        -3.9466749226       -6.9724392954      -10.2233830681
 H        -3.1875285549       -6.7993375789       -8.5823849645
 H        -2.5334452314        0.5769448267      -12.8632632811
 H        -2.7943642623        0.1144098974      -11.1998875394
 H        -4.1575288099        0.8253751598      -12.2726615178
 H        -5.3943054545       -1.0436964212      -13.9799511167
 H        -3.9095499544       -1.4237645511      -14.8284697691
 H        -4.2558598954        0.1628503260      -14.4093956229
 H         2.3296695693       -4.9203000235      -13.2749795168
 H         1.3907794151       -5.0996518060      -11.8075764442
 H         3.1635118310       -5.4273082657      -11.7356784878
 H         3.1488617546       -3.7061879773       -9.9893393717
 H         1.5517893534       -3.3112455397      -10.1758870328
 H         2.7632905915       -2.0277177834      -10.1880380991
 H         9.4573457511       -0.9501958582      -10.6702304994
 H         7.8924550117       -0.4434435026      -10.2771265454
 H         9.1034265792        0.7609740678      -10.8621915296
 H         9.7086725287        1.1093458053      -12.9086317779
 H         8.0890273522        1.5271391341      -13.3267130565
 H         8.9678984370        0.3568615578      -14.4374569871
 H        10.4707446752       -5.4890518199      -15.5494290732
 H        12.3041377739       -5.2546229601      -15.8962216276
 H        11.2730687897       -5.9239002067      -17.0282629317
 H        11.4296440817       -3.9528897385      -18.6451647676
 H        12.2681008135       -2.8240882560      -17.6895874632
 H        10.5414692110       -2.6058676120      -18.0239865951
 H         2.4337568498       -3.9917539061      -16.7500300649
 H         3.6150418387       -3.6593555476      -15.5073678246
 H         3.2879926039       -5.2973730110      -16.1385958271
 H         4.8324466007       -4.9244829940      -19.5685450182
 H         2.9963133981       -4.8667591295      -18.9700509949
 H         4.2142349504       -6.1328728520      -18.3914819785
 Na        6.1037631756       -2.6854761929      -14.9527572852
 Na       -7.6366193493       -1.9745871152       -9.6776553253
