232

 C         4.0953899091       -1.9679959483      -19.1541335232
 C         4.6257148915       -2.4839132097      -17.7571062248
 O         5.1631657479       -1.7124842484      -16.9940594200
 C         4.5685572050       -4.1346812461      -17.5160902750
 C         5.8633555844       -4.6050512448      -16.8638909290
 O         5.9843679958       -4.9501459277      -15.6951202526
 C         6.9941504722       -4.6831602056      -17.8246668289
 C         8.3440143472       -5.1348112352      -17.2076562196
 C         9.0295792355       -3.9092194749      -16.5348051317
 O         8.3743470628       -3.0331946205      -16.0681366572
 C        10.6772490307       -3.8241053466      -16.5125692289
 C        10.8627123333       -2.7366006753      -15.5374840888
 O        10.8803466291       -1.5229188425      -15.7413590270
 C        10.8556779394       -3.2191489879      -14.1122845112
 C        10.4878363661       -2.1786320064      -12.9638395002
 C         9.0034658235       -1.8349494629      -13.2365657082
 O         8.2772071865       -2.7364698372      -13.6888381371
 C         8.3477721895       -0.5304125584      -12.6702327540
 C         6.7537138561       -0.7353333566      -12.9771837499
 O         6.4889425939       -0.4915059380      -14.1171053899
 C         5.8026866704       -1.2663928330      -11.8594634564
 C         4.4029252541       -1.2107024228      -12.3523003200
 C         3.8323699676       -2.6581102694      -12.4957591376
 O         4.3352559677       -3.3910623115      -13.2770910654
 C         2.4959726218       -3.1020021007      -11.7166661736
 C         1.2470007817       -2.4181207547      -12.3201316876
 O         1.4165213396       -1.4107746542      -13.0294741858
 C        -0.1861900202       -2.8816609084      -12.0364659439
 C        -1.2232459836       -1.7106790188      -12.1415242378
 C        -2.5474984202       -2.1521979552      -12.8370532100
 O        -2.5385980713       -3.2498428382      -13.4101590315
 C        -3.7677551010       -1.2568162042      -12.8850363972
 C        -4.8940543949       -1.8740882681      -11.9429193896
 O        -5.1689560256       -1.3598809553      -10.8569152809
 C        -5.4419912981       -3.2421019582      -12.4370443174
 C        -4.5979076657       -4.1743331168      -11.4300466894
 C        -5.2075802009       -4.3687119757       -9.9865054496
 O        -6.2895204239       -3.8435726239       -9.7263533954
 C        -4.5851692380       -5.3791592734       -8.8814900040
 C        -4.0731029854       -4.1645552953       -7.9506268306
 O        -3.0051401793       -3.5945708552       -8.1236635937
 C        -5.0127859331       -3.6220346727       -6.8568249284
 C        -4.3948353230       -2.4971275048       -6.0520252050
 C        -5.1499865441       -2.2119207757       -4.7757439924
 O        -5.9566681147       -3.0141778513       -4.3557842033
 C        -4.9635139111       -0.8662687463       -3.9821615352
 C        -5.3806850395        0.2864908107       -4.8808703895
 O        -4.5439054343        0.9675682794       -5.4590317716
 C        -6.9561672093        0.4171252240       -5.1164351327
 C        -7.4132924064        1.3755625490       -6.1772338560
 C        -7.3633166474        0.8250111887       -7.6812023559
 O        -7.2235909841       -0.3440516371       -7.8673180513
 C        -7.4940097327        1.7886878115       -8.8734426145
 C        -8.5273956460        1.3453994389       -9.8173983479
 O        -8.7328661931        0.1733338371      -10.0261236931
 C        -9.4430053937        2.3904829291      -10.5780107611
 C        -9.9252307302        1.9289598167      -11.9302588180
 C       -10.7002786083        0.6378282157      -11.7910114338
 O       -11.4513842994        0.5934049084      -10.7862242718
 C       -10.7059134441       -0.6071665244      -12.8234319529
 C       -10.4309593807       -1.8675863122      -11.9282853209
 O        -9.2746084394       -2.1835329464      -11.7643374516
 C       -11.5885718772       -2.5006633453      -11.3004695540
 C       -11.3615509200       -3.8412127245      -10.5263219254
 C       -10.8909130041       -3.7202705097       -9.1111206770
 O        -9.9216963141       -2.9793559379       -8.6886729882
 C       -11.4826436665       -4.6689763019       -7.9455073994
 C       -12.7909583456       -3.7194549412       -7.4278251863
 O       -13.2924655128       -3.1239909412       -8.3556208975
 C       -13.0972349620       -3.5865936555       -5.9624486137
 C       -13.7459029998       -2.3013080928       -5.5877989330
 C       -12.6779267327       -1.3431711916       -5.1142144981
 O       -11.6184600916       -1.7501698374       -4.6646701253
 C       -12.8949458739        0.1881037807       -5.3058943557
 C       -12.5699838877        0.9861535064       -3.9100621145
 O       -13.4843715706        1.5614468002       -3.4051635172
 C       -11.1408837631        1.0846093686       -3.4714534344
 C       -11.0438659332        1.9435941086       -2.2282245532
 C        -9.6568437388        2.4521974542       -2.0048604462
 O        -8.7005683807        1.9638201237       -2.6584799109
 C        -9.3555995041        3.5754869159       -0.9598014858
 C        -9.5744181844        4.8521095280       -1.8568843472
 O       -10.6611663029        5.3608587689       -2.0051350885
 C        -8.2917415936        5.2689811076       -2.6222643052
 C       -10.4555485801        3.5324982139        0.1198745458
 C        -8.0413441578        3.4377482934       -0.2216005182
 C       -11.9259003764        0.7552699433       -6.3381445703
 C       -14.4044885906        0.6192651559       -5.5969806328
 C       -11.9996109863       -6.0096282791       -8.4410302757
 C       -10.3612320288       -4.9216962699       -6.7365699269
 C       -12.0604036839       -0.6213213052      -13.4877135815
 C        -9.6570060523       -0.3989477752      -13.9237453350
 C        -7.7778556256        3.2603051007       -8.3545881061
 C        -6.0635908038        1.7062633004       -9.6291281842
 C        -5.7242828089       -0.8833542529       -2.7449732118
 C        -3.3679384472       -0.7504085658       -3.6403234160
 C        -5.7546673929       -6.2314500829       -8.3163101371
 C        -3.3464173848       -6.0798589301       -9.3775950252
 C        -3.3555900614        0.2236227722      -12.2993712058
 C        -4.2888207680       -1.2678792143      -14.3407522008
 C         2.3709246448       -4.5952016958      -11.7859094582
 C         2.4916918838       -2.6128295053      -10.2221306571
 C         8.6878924323       -0.3249025915      -11.1873364811
 C         8.8683272045        0.6865390373      -13.4541950491
 C        11.4233998807       -5.1848171362      -16.0093790411
 C        11.2572843566       -3.3977068848      -17.9218487284
 C         3.2626131566       -4.2349042465      -16.5900300399
 C         4.2895143057       -4.7590379041      -18.8712522001
 H         3.2385112333       -2.4356506065      -19.5272407444
 H         4.8475928028       -2.3092716454      -19.9209902264
 H         4.0858948833       -0.9206192277      -19.1536391157
 H         7.2341196832       -3.8020576079      -18.4821574583
 H         6.6606933278       -5.5123045887      -18.4840768653
 H         9.0379580068       -5.3744612037      -18.0567548577
 H         8.0845122121       -6.0106065958      -16.5824150613
 H        11.8253570109       -3.6826701130      -13.9131336185
 H        10.1501978691       -4.0103933382      -13.8799905586
 H        11.0795177138       -1.2516127299      -12.9267743356
 H        10.5493511257       -2.7266997564      -11.9834840835
 H         5.9404151238       -0.6358915112      -11.0076717746
 H         6.1016934798       -2.2891134998      -11.5387355725
 H         4.3863619561       -0.7739473104      -13.3188387501
 H         3.7318988198       -0.6580981029      -11.7660313023
 H        -0.2181357840       -3.2839271231      -11.0239718947
 H        -0.4985609745       -3.6021267523      -12.8232348793
 H        -0.8007521186       -1.0300445805      -12.8525748338
 H        -1.4199896982       -1.1125042389      -11.1981914410
 H        -5.3778883819       -3.4963662905      -13.4960219888
 H        -6.4294871001       -3.4047957860      -12.0396719399
 H        -3.5559904277       -3.8431055195      -11.5557067395
 H        -4.6308660090       -5.1186215428      -11.9827731097
 H        -5.2193671068       -4.5575997787       -6.2810394394
 H        -5.8971457121       -3.2623799650       -7.4017716716
 H        -4.2975513562       -1.7061669764       -6.7257478457
 H        -3.2972565198       -2.6633171642       -5.8807603241
 H        -7.2714854937        0.8584508210       -4.1844005521
 H        -7.3364168274       -0.6389279784       -5.1545712807
 H        -6.8106007448        2.2568450720       -6.0602571666
 H        -8.4652928694        1.6571022862       -6.0660631272
 H        -9.0051586590        3.3948497254      -10.5759616252
 H       -10.3458266159        2.5711078616       -9.8989856028
 H        -9.1602283885        1.8898028521      -12.7316696856
 H       -10.5186384412        2.7535641676      -12.3593429468
 H       -12.1715919397       -2.7977138805      -12.1916488737
 H       -12.2267884607       -1.8640252648      -10.7739180899
 H       -10.7672836191       -4.4326086153      -11.1829907542
 H       -12.3083408119       -4.3293051475      -10.4730901071
 H       -12.0335991767       -3.6655676465       -5.4914436002
 H       -13.6769706907       -4.5359860960       -5.7768439651
 H       -14.4658660380       -2.3910311289       -4.7782002326
 H       -14.4550382085       -1.9558651742       -6.3897638941
 H       -10.5075383660        1.5912578420       -4.2378936964
 H       -10.7618612308        0.1132524391       -3.2783214701
 H       -11.2357499542        1.2858179768       -1.3896375757
 H       -11.7256390960        2.7905172651       -2.2677971564
 H        -8.4706697318        6.1958478962       -3.0705086190
 H        -8.0162644153        4.5197887872       -3.3661107176
 H        -7.5363568771        5.4034838060       -1.8540186537
 H       -10.6120382727        2.6260808151        0.7003464840
 H       -11.3838261768        3.7832543421       -0.3752233804
 H       -10.2041798995        4.3203237163        0.8772573763
 H        -8.1002057032        2.4685043235        0.3131447061
 H        -8.0251594374        4.2901341599        0.5029578723
 H        -7.1438867198        3.4133498956       -0.8175281255
 H       -12.0237352640        0.1901547620       -7.2372082731
 H       -10.8453673078        0.6828885654       -6.0611183777
 H       -12.0313281411        1.7830237038       -6.6079555825
 H       -15.0898881989        0.0578999678       -4.9917495260
 H       -14.6783718685        0.4317457199       -6.5811757217
 H       -14.5541568050        1.6393239408       -5.4445297505
 H       -12.7443201451       -5.9047441814       -9.1771953452
 H       -12.5036433185       -6.4867718274       -7.5845856513
 H       -11.2192681694       -6.6569792348       -8.7438541850
 H       -10.4430117200       -5.8746674464       -6.1743475355
 H       -10.4020737665       -4.0988854416       -5.9771013831
 H        -9.3205584235       -4.7970187084       -7.2294394912
 H       -12.1632584503        0.1353978887      -14.2768840468
 H       -12.9108123216       -0.6249680264      -12.8408831302
 H       -12.0876934148       -1.4992517374      -14.0369108284
 H        -8.6459979834       -0.3535511377      -13.4352219460
 H        -9.8366980362        0.5717179344      -14.4519630528
 H        -9.6068739347       -1.2028675431      -14.6765845455
 H        -7.5161383421        4.0330004189       -9.1075913713
 H        -7.1551913949        3.3944818079       -7.5613770335
 H        -8.7998661681        3.1124470037       -8.0531689542
 H        -5.8556006617        0.7246862609      -10.0277119474
 H        -5.1585203372        2.0272286301       -9.0646767254
 H        -6.0564679172        2.3111752837      -10.5130662970
 H        -5.2645671890       -1.6404180836       -2.0234033393
 H        -6.8360767188       -0.8520698934       -2.9687210680
 H        -5.5189156627        0.0216266478       -2.1707780103
 H        -3.1964238518        0.2746952382       -3.5626093527
 H        -2.8520380576       -1.3899166562       -4.3635628624
 H        -3.1826151366       -1.2087781389       -2.6847864223
 H        -5.3179519272       -6.5844065717       -7.3401929607
 H        -6.0207931196       -7.0922487919       -8.9149774019
 H        -6.6620556973       -5.7392115339       -8.0582872620
 H        -2.5880985219       -5.3279940304       -9.6406083689
 H        -3.5499700265       -6.6622829728      -10.2726426243
 H        -2.8984413179       -6.7354908305       -8.6886000032
 H        -2.4756886950        0.6014542948      -12.8758380405
 H        -3.1501305194        0.0394692135      -11.2333471061
 H        -4.2453753309        0.8414666471      -12.4521066057
 H        -5.3290076694       -1.7348072190      -14.4874615669
 H        -3.5931439280       -1.7729300629      -15.0383112111
 H        -4.3832232282       -0.2268121686      -14.7132849291
 H         2.3842691564       -5.0321518610      -12.7893287025
 H         1.4423673461       -4.8504569177      -11.2509732693
 H         3.1904743429       -5.0055381934      -11.1674293556
 H         3.4458773769       -2.7699735960       -9.6455332649
 H         1.6870078793       -3.1657662591       -9.6719667527
 H         2.2995816477       -1.4883373997      -10.2792918865
 H         9.4668009727       -0.9556733526      -10.8342747847
 H         7.7991532118       -0.5598579658      -10.5323382712
 H         9.0150223544        0.7028054629      -11.1113791301
 H         9.9717728606        0.5587178618      -13.5453457339
 H         8.6531221843        1.5937535170      -12.9849783231
 H         8.4077111537        0.4358829418      -14.4406274770
 H        10.7897107687       -5.8153519221      -15.3519103100
 H        12.4118958183       -4.8382343504      -15.7684979902
 H        11.5938037076       -5.7741421452      -16.8978986898
 H        11.1623997196       -4.2380006376      -18.6010522764
 H        12.2773860651       -3.3103442775      -17.9332429321
 H        10.6414043720       -2.5858234140      -18.4335475861
 H         2.4243780185       -3.8660655132      -17.1812101183
 H         3.3719542007       -3.7648626337      -15.6418746370
 H         3.0438686573       -5.2804092105      -16.4410569342
 H         5.0419755987       -4.3910545567      -19.5560701471
 H         3.2271268139       -4.5731674441      -19.0591857207
 H         4.4824642504       -5.8039310917      -18.8020652577
 Na        6.2286188241       -2.6486822406      -14.8386498424
 Na       -7.8950200728       -1.8692995625       -9.5878492908
