232

 C         4.1354861258       -1.7017428111      -18.8418527460
 C         4.7769849905       -2.5660232839      -17.7374584817
 O         5.4201080268       -2.0161973752      -16.8841732872
 C         4.6451780559       -4.1575358866      -17.6959242791
 C         5.9571119392       -4.6538501760      -17.1111643000
 O         5.9336742627       -4.9090612220      -15.9308832256
 C         7.1359961143       -4.9736765130      -17.9927133252
 C         8.4051101818       -5.2774986888      -17.2190609227
 C         9.0044875172       -4.0061412980      -16.6552381681
 O         8.3053282228       -3.0521010623      -16.3946137368
 C        10.6190674612       -3.8859999340      -16.6175317745
 C        10.8344984462       -2.6998307149      -15.4544284136
 O        11.0032301370       -1.5974236332      -15.8660662993
 C        11.0620240761       -2.9626690332      -14.0527457327
 C        10.4205179287       -2.0870232828      -13.0456735220
 C         8.8583629624       -1.9297426090      -13.2211014958
 O         8.2136077545       -2.7589567282      -13.7249812623
 C         8.2634366330       -0.4854206550      -12.6988899269
 C         6.7333553746       -0.4524596890      -12.9782045475
 O         6.2532517756       -0.2884650343      -14.1101714450
 C         5.8271165776       -1.0398995796      -11.7917632775
 C         4.3241448872       -1.0600360523      -12.1676173308
 C         3.8040491323       -2.4664368234      -12.3754595410
 O         4.2983548693       -3.2589384309      -13.2146920107
 C         2.4949801768       -2.8758055645      -11.5000053490
 C         1.1904629605       -2.2535649789      -12.2639749256
 O         1.3516169827       -1.3646406387      -13.0395312840
 C        -0.2362660240       -2.8776973549      -11.8096956284
 C        -1.3759474324       -1.8261403962      -11.9167368359
 C        -2.5192383485       -2.2533986002      -12.7983897426
 O        -2.5683114532       -3.3423266005      -13.3226135937
 C        -3.8089046351       -1.2433081444      -13.0214297991
 C        -4.8551661990       -1.9722386226      -12.0000582736
 O        -5.1622572826       -1.3721716983      -11.0029571644
 C        -5.4677448862       -3.3548752819      -12.3348779977
 C        -4.7729711222       -4.5096294822      -11.5260612291
 C        -5.2808344670       -4.4110888399      -10.1376157172
 O        -6.3687631518       -3.9958266679       -9.7914567062
 C        -4.5052892328       -5.2146402285       -8.9571310122
 C        -3.9612953822       -3.9151433469       -8.1217035523
 O        -2.8910636394       -3.4505450576       -8.3751879826
 C        -4.9345713421       -3.5724976046       -6.9648470273
 C        -4.3631018529       -2.4633385886       -6.0486324392
 C        -5.1344288769       -2.3461354413       -4.8000002678
 O        -5.7747578334       -3.2587773489       -4.3015381047
 C        -4.8931257448       -0.9081805160       -4.0858523860
 C        -5.5852267262        0.1973271392       -4.8778854467
 O        -4.9149063607        0.9913682593       -5.5013056546
 C        -7.1035032840        0.1907195341       -5.0221480231
 C        -7.5017255459        1.2945844032       -5.9912047872
 C        -7.4909961617        0.9094581548       -7.4672521122
 O        -7.3807274312       -0.2721167915       -7.7972173198
 C        -7.6745240705        2.0662561534       -8.6961790736
 C        -8.6596540106        1.6141678516       -9.7578780746
 O        -8.8353036310        0.4303808780      -10.0227455457
 C        -9.3463921522        2.6325793997      -10.6725377895
 C        -9.8394516985        1.9367996776      -11.9603526542
 C       -10.8011629358        0.7372984300      -11.6976140584
 O       -11.6290434210        0.6901624856      -10.8750487271
 C       -10.5380127331       -0.5793205502      -12.7103687365
 C       -10.3584438542       -1.7894603803      -11.8052665798
 O        -9.2423210428       -2.3336750207      -11.7875199456
 C       -11.5059041681       -2.4148329192      -11.0283078465
 C       -11.3461319314       -3.7507652832      -10.3447667443
 C       -10.7529821349       -3.8033742463       -8.9591616443
 O        -9.7904678429       -3.2043229962       -8.6570470510
 C       -11.4621927938       -4.6650291474       -7.8186269066
 C       -12.7568813175       -3.9424826453       -7.3659268745
 O       -13.5768091141       -3.4080122602       -8.1098382695
 C       -13.1768705406       -3.7113252714       -5.7937308150
 C       -13.6919362217       -2.2931184178       -5.5525383095
 C       -12.5991239339       -1.2521391562       -5.1931719076
 O       -11.6481884430       -1.5782689756       -4.5023240699
 C       -12.9738304331        0.2825157981       -5.4526391539
 C       -12.5989930024        0.9950942751       -4.0219265982
 O       -13.5018585063        1.4161950841       -3.3022922190
 C       -11.1353024510        0.9106689667       -3.3969890097
 C       -10.9281309950        1.9262257853       -2.2309400258
 C        -9.4569082730        2.2669875704       -1.8480341223
 O        -8.5192592715        1.6361623266       -2.3064172346
 C        -9.3096130668        3.4285687268       -0.9178858506
 C        -9.4561782881        4.7343055682       -2.0181163111
 O       -10.5372267201        5.2910211761       -2.1219688622
 C        -8.2560953684        5.3954495434       -2.7112760785
 C       -10.4292356378        3.7164785728        0.0360545288
 C        -7.8990921239        3.4662170242       -0.3216631934
 C       -11.9156812307        0.6903694964       -6.5102965011
 C       -14.3537634552        0.5975107112       -6.0064543898
 C       -12.1935587233       -6.0051634086       -8.3747613141
 C       -10.4835118228       -5.0505574575       -6.7487124429
 C       -11.8026242617       -0.7284056911      -13.6005595225
 C        -9.3307851076       -0.3398662583      -13.6232111163
 C        -7.8392685734        3.5118199336       -8.2546983048
 C        -6.2332344742        2.0160677686       -9.3082460463
 C        -5.5063341158       -1.1132999203       -2.5878108155
 C        -3.3550475260       -0.6073125864       -3.8688910238
 C        -5.4101213047       -6.2358209606       -8.1945561734
 C        -3.3193825180       -5.9778821197       -9.5680670593
 C        -3.6651225641        0.2615089701      -12.5591317939
 C        -4.2073711807       -1.2704218065      -14.5410034170
 C         2.3533881413       -4.4010918678      -11.3636659920
 C         2.7456947992       -2.3222331908      -10.0844607169
 C         8.7505604742       -0.3630246042      -11.2319997173
 C         8.9752364468        0.5346703559      -13.6313985190
 C        11.2239797936       -5.2443126341      -16.1902996050
 C        10.9716875704       -3.3462132413      -18.1068963499
 C         3.5074657830       -4.3135642657      -16.7098050385
 C         4.2607021067       -4.8234188327      -19.0284307314
 H         3.0003314329       -1.9076053193      -18.8767835848
 H         4.4219768661       -2.0301057098      -19.8129321221
 H         4.4450093851       -0.6680304663      -18.6392458923
 H         7.4197205829       -4.1577703075      -18.5960974919
 H         6.9451523557       -5.7998380638      -18.6569182438
 H         9.1340267753       -5.7351701629      -17.8687865996
 H         8.1513894920       -5.9725217737      -16.4173694378
 H        12.1399227089       -2.9825586384      -13.8472890528
 H        10.7930331856       -3.9717107612      -13.7335770403
 H        10.9608584707       -1.1509999309      -13.0472309698
 H        10.4915188550       -2.5732089097      -12.0862183010
 H         5.9439352609       -0.3985670163      -10.8415788031
 H         6.2349949088       -2.0142041169      -11.4543312182
 H         4.2629750249       -0.4982594020      -13.1965817263
 H         3.6172761939       -0.5105922558      -11.4598236221
 H        -0.2373438404       -3.1952028014      -10.7721913570
 H        -0.4461702204       -3.6978385375      -12.4715516879
 H        -0.9670517011       -0.8180803020      -12.2513447458
 H        -1.8623328293       -1.7537001510      -10.9596529117
 H        -5.2704875930       -3.4542734026      -13.3918988796
 H        -6.5471641959       -3.3806133502      -12.1371812224
 H        -3.7536770764       -4.3968530582      -11.8125613635
 H        -4.9851775003       -5.4743538314      -11.9712852938
 H        -4.9157664280       -4.5047634369       -6.4449198929
 H        -5.8805325767       -3.4172970551       -7.4771084693
 H        -4.2183760797       -1.4869862670       -6.6478988609
 H        -3.3178768707       -2.7033829209       -5.8457105681
 H        -7.6294645922        0.3615727528       -4.0558272769
 H        -7.3957344346       -0.7624845220       -5.3882032305
 H        -6.8248061053        2.1982373993       -6.0259109472
 H        -8.4781173580        1.6292716846       -5.7085944523
 H        -8.6470801124        3.4694227628      -10.8775900184
 H       -10.1097914827        3.0132859268      -10.0549095851
 H        -9.0088280907        1.7651532271      -12.6314632969
 H       -10.4777514461        2.6541262366      -12.5442162305
 H       -12.4589405412       -2.3523908629      -11.5354375484
 H       -11.6484646887       -1.7659111552      -10.0984832491
 H       -10.9066633245       -4.4347560392      -11.0981221536
 H       -12.3986043220       -4.1114674778      -10.2940315717
 H       -12.3854600314       -3.8767182577       -5.1698953039
 H       -13.9588512455       -4.4122362220       -5.6056478881
 H       -14.4409526093       -2.2790379088       -4.7457997542
 H       -14.2813417784       -2.0302963310       -6.3897220725
 H       -10.3466078159        1.1621246782       -4.0732721117
 H       -11.0611373885       -0.1286963085       -2.9629105688
 H       -11.4104618262        1.5015520392       -1.3206863974
 H       -11.4258246612        2.8719767652       -2.5401529794
 H        -8.1346016678        6.4415791319       -2.3389828026
 H        -8.5967686082        5.4836407748       -3.7311468784
 H        -7.3420503952        4.8352722283       -2.5157445490
 H       -10.4574840964        2.8262276203        0.7439622640
 H       -11.4587895231        3.7173200438       -0.4109839288
 H       -10.1872819541        4.5924879813        0.6563156845
 H        -7.8844476662        3.3773717017        0.7414095690
 H        -7.3935629988        4.3377145488       -0.6411199277
 H        -7.4698266723        2.4756790039       -0.5558348777
 H       -12.1233335356        0.2881033389       -7.5176097183
 H       -10.9197127812        0.3740890412       -6.2928074332
 H       -11.7590574792        1.8021776269       -6.5765734703
 H       -15.1347411432        0.0538703926       -5.4664231684
 H       -14.3857888383        0.3133752480       -7.1321359563
 H       -14.5657701669        1.6852861241       -5.8518661953
 H       -12.8682300404       -5.7401555466       -9.2044754564
 H       -12.7610409719       -6.5265424106       -7.6284692950
 H       -11.4056136084       -6.6953347296       -8.7471411818
 H       -10.9185518356       -5.9207409161       -6.2599829649
 H       -10.4059162109       -4.3407048593       -5.9437352430
 H        -9.5542473929       -5.2765234010       -7.1488586346
 H       -11.8073373027        0.0502789087      -14.3397555404
 H       -12.6736611105       -0.6055911216      -12.9798249114
 H       -11.8959244848       -1.6643715582      -14.2164849250
 H        -8.4026042834       -0.2443863906      -13.1935344284
 H        -9.5525357341        0.4885318463      -14.2955379205
 H        -9.3486104461       -1.2054386874      -14.2808403520
 H        -7.3547080852        4.0344577585       -9.0055653756
 H        -7.2443493584        3.7215184874       -7.3405128263
 H        -8.9220407319        3.6581226536       -8.1609148926
 H        -5.9043548852        1.0154340640       -9.6153034555
 H        -5.5214565522        2.3347289545       -8.5953696085
 H        -6.0889825899        2.6673488000      -10.1656068915
 H        -5.6895301058       -2.0532577523       -2.3913292097
 H        -6.3916607076       -0.4820191357       -2.5424471094
 H        -4.9259690274       -0.8224121698       -1.7400198253
 H        -3.2139772991        0.4539654067       -4.2179873224
 H        -2.8223917904       -1.3885553778       -4.3676504395
 H        -3.0993007181       -0.7104126324       -2.8065094184
 H        -4.9239741338       -6.8336754667       -7.4168216144
 H        -5.7282251319       -7.0219222699       -8.8870825836
 H        -6.3845261400       -5.8240846079       -7.9529040635
 H        -2.5217931257       -5.3679377237       -9.9141029864
 H        -3.5870853295       -6.6579431840      -10.3197780547
 H        -2.9682497507       -6.6138003059       -8.7261457858
 H        -2.9654607152        0.6955677475      -13.2262897427
 H        -3.5039786638        0.3389116978      -11.5178668338
 H        -4.6686541612        0.6723351360      -12.7275819618
 H        -5.2208566776       -1.4660273236      -14.6050552998
 H        -3.7653695859       -2.1461717651      -15.0434838847
 H        -4.0272553030       -0.3688455684      -15.1046170490
 H         2.1715301073       -4.7922908805      -12.3435413857
 H         1.5924106488       -4.6913466862      -10.6846644431
 H         3.2442069573       -4.8399210718      -11.0079149502
 H         3.7917351552       -2.5911052531       -9.9405811946
 H         2.1970305339       -2.9436094805       -9.3716887798
 H         2.6272902018       -1.2812884941       -9.8658806777
 H         9.8951624926       -0.2289744822      -11.3000917010
 H         8.5435701338       -1.3122530801      -10.7808474388
 H         8.2647069825        0.4838830203      -10.7268945935
 H         9.9092453204        0.1493214774      -13.8802584161
 H         9.1081993909        1.3754180325      -12.8934859783
 H         8.4188921699        0.6987214118      -14.5293949980
 H        10.8671268413       -5.4532121823      -15.2016120965
 H        12.3137643158       -5.1030892924      -16.3140370068
 H        10.7905966228       -6.0790296660      -16.8145072988
 H        10.5395246583       -3.8313973799      -18.9581489560
 H        12.0632115462       -3.6630461991      -18.2419502592
 H        10.7744269611       -2.3023671101      -18.2028447339
 H         2.7096618815       -3.7007316212      -17.2480599856
 H         3.8101598349       -3.7442696565      -15.7750539022
 H         3.0793994093       -5.3117611937      -16.4357619227
 H         5.1008501894       -4.6985681509      -19.6390026831
 H         3.4160952762       -4.2483292209      -19.2643571046
 H         3.9646626453       -5.8575372826      -18.8811549083
 Na        6.0698479077       -2.7237093145      -14.9068874719
 Na       -7.9984890376       -2.0334380129       -9.7220651330
