232

 C         4.2481481601       -1.7617159192      -18.7657457006
 C         4.9257193361       -2.5415990377      -17.7257838000
 O         5.5567456004       -2.0415836898      -16.8122090630
 C         4.6226171012       -4.0497189973      -17.7976811062
 C         5.9424037458       -4.7805965789      -17.2151850949
 O         6.0753130760       -4.8295387082      -16.0318878157
 C         6.9914945638       -5.5201379072      -18.1075691787
 C         8.4401901510       -5.4441134986      -17.4998838793
 C         8.8200335579       -4.0396338559      -16.9693689787
 O         8.0640762002       -3.1629390214      -16.6498502756
 C        10.3861099057       -3.8503838452      -16.8129950123
 C        10.7666366692       -2.7702706812      -15.5385433659
 O        11.0748802117       -1.6240808660      -15.8969649620
 C        10.8536031879       -3.1931665535      -14.1539435058
 C        10.3731443895       -2.1004220123      -13.2010507638
 C         8.8852765384       -1.8527376225      -13.2620599716
 O         8.2231462341       -2.7844479204      -13.5697515140
 C         8.2280343709       -0.4431085948      -12.8642373349
 C         6.6818808610       -0.4381061650      -13.0485532117
 O         6.1776478677       -0.2389424395      -14.1521891069
 C         5.7482408396       -0.6918869200      -11.8060254167
 C         4.2249216008       -0.6494473516      -12.2221988095
 C         3.7134500545       -2.0931414230      -12.2478504844
 O         4.1361439724       -2.9222546101      -13.0533067885
 C         2.4807155823       -2.5849363154      -11.3865412577
 C         1.1403393464       -2.0781968862      -11.9967652259
 O         1.1539142347       -1.1412445355      -12.7242887835
 C        -0.1966292124       -2.6148126177      -11.4662236218
 C        -1.4196371654       -1.6302802696      -11.8214445886
 C        -2.4125799465       -2.3781137103      -12.6260722426
 O        -2.1756828071       -3.3905506491      -13.2384370070
 C        -3.8035821056       -1.5295635355      -12.9336948416
 C        -5.1416251195       -2.0599519233      -12.1893094655
 O        -5.6911520730       -1.4392400193      -11.3106030211
 C        -5.6831425465       -3.4542191499      -12.4628397537
 C        -5.3247549570       -4.6555050967      -11.6318593783
 C        -5.4834723039       -4.5221892151      -10.1308683393
 O        -6.4747833375       -3.9708401733       -9.6612294888
 C        -4.4534084702       -5.1006131901       -9.1541594144
 C        -3.9570636882       -3.8249227759       -8.3595175000
 O        -2.9106250341       -3.2839087502       -8.5300643502
 C        -4.7440055810       -3.4698710130       -7.1039312757
 C        -4.2219539979       -2.3451065960       -6.2692638552
 C        -4.9393110831       -2.2763757416       -4.9446140106
 O        -5.4521053020       -3.2709629295       -4.4571696403
 C        -4.9037663769       -0.9141338096       -4.1174906888
 C        -5.7498781615        0.1675248915       -4.9411767956
 O        -5.2208180490        0.9795432237       -5.6468013033
 C        -7.2885332491       -0.0045038162       -4.9837841603
 C        -7.8955678472        1.0256267729       -5.8739073079
 C        -7.8611042567        0.6980319772       -7.3854557523
 O        -7.7824418823       -0.4565685105       -7.7507504944
 C        -7.7408472075        1.9098101818       -8.4203936974
 C        -8.6403397903        1.5240411320       -9.7100352178
 O        -8.6400557517        0.3749907121      -10.1824370372
 C        -9.4826023175        2.6778217358      -10.4397163846
 C        -9.7989052994        2.1025171291      -11.8255593700
 C       -10.5704619384        0.7776036007      -11.7374858947
 O       -11.5829942252        0.8028849646      -11.1251554367
 C       -10.2381964870       -0.4329423299      -12.5177119112
 C       -10.2120058775       -1.6667411963      -11.4989627271
 O        -9.2932519119       -2.4557158166      -11.5830700955
 C       -11.3348745627       -1.8773025250      -10.3525645061
 C       -11.4267110664       -3.4425090537      -10.0392092084
 C       -10.6379536607       -3.8243944839       -8.7981927405
 O        -9.5540539778       -3.4894790984       -8.4978107613
 C       -11.5115421854       -4.8056452491       -7.7487157872
 C       -12.8921900736       -3.9186240523       -7.3385558629
 O       -13.7189322481       -3.6234856594       -8.1767845268
 C       -13.0862892877       -3.7900294389       -5.7322463742
 C       -13.6940044495       -2.2871171054       -5.4113694827
 C       -12.5681667524       -1.3159662426       -5.1825338177
 O       -11.4638170300       -1.7130304334       -4.8613295752
 C       -12.7551609163        0.2526132573       -5.4318230040
 C       -12.5104779781        0.9644027270       -4.0501107228
 O       -13.4325730782        1.3867346126       -3.3258155576
 C       -11.0777334028        1.1215175166       -3.4979955624
 C       -10.9993271463        2.2088971461       -2.3489854323
 C        -9.5207771852        2.1410120717       -1.7390552045
 O        -8.7332163928        1.2979274983       -1.9589389839
 C        -9.1699797382        3.5244839205       -1.0586122647
 C        -9.2893561904        4.6064604956       -2.1461155555
 O       -10.4247534182        4.9710364732       -2.4978616529
 C        -8.1003019866        5.3097696448       -2.8460468533
 C       -10.1972295766        3.6208648018        0.0952456634
 C        -7.7410452415        3.3177441768       -0.5336095640
 C       -11.6499932425        0.6257881872       -6.4210317865
 C       -14.1787416504        0.6605589250       -5.9425362365
 C       -11.9875702110       -6.0349384241       -8.5280680119
 C       -10.6323208691       -5.2425431087       -6.4775457177
 C       -11.5000274827       -0.7850054199      -13.4642318362
 C        -8.8985540383       -0.4632146121      -13.2489929857
 C        -8.2965501380        3.2450768946       -7.8072398942
 C        -6.3168242052        2.2122176746       -8.9822423795
 C        -5.4900307963       -1.1222094868       -2.6659703495
 C        -3.4555091457       -0.3487488000       -3.9182147467
 C        -5.1309993662       -6.2542217536       -8.3634999265
 C        -3.3062828731       -5.7856130022       -9.8391614484
 C        -3.5452883114       -0.0369436268      -12.6272215625
 C        -4.0629000309       -1.5461883673      -14.4641813261
 C         2.5535428987       -4.1656574358      -11.2100655146
 C         2.5361266574       -2.0059987249      -10.0193877244
 C         8.8303811535       -0.1702116342      -11.3824212391
 C         8.7269586119        0.5114138211      -13.8710644909
 C        11.2023606277       -5.1188873836      -16.3735151555
 C        10.9521124660       -3.2848368777      -18.1420405765
 C         3.4109189251       -4.4777611809      -16.9586621313
 C         4.2799180019       -4.4690162134      -19.3605581851
 H         3.2622362885       -1.5257133566      -18.3529998112
 H         4.0939188359       -2.3358969148      -19.5971336788
 H         4.7762967381       -0.8257631905      -19.0074402709
 H         7.1403765955       -5.0370512244      -19.0855312774
 H         6.7932665345       -6.6239420900      -18.2883448052
 H         9.2130427842       -5.7904966110      -18.2185784069
 H         8.6307397089       -6.0822876308      -16.6018446820
 H        11.8457231229       -3.4639920060      -13.7945784776
 H        10.2915772623       -4.1331880668      -13.9510522611
 H        10.9884337458       -1.2015674381      -13.4315702251
 H        10.5042009333       -2.5036590899      -12.1894915326
 H         5.8692035533       -0.0813150887      -10.9256593302
 H         5.9696512189       -1.6455004359      -11.3417935195
 H         4.0297037662       -0.2440452691      -13.1583395513
 H         3.6637476216       -0.1323380324      -11.4334913300
 H        -0.2167804977       -2.7726738594      -10.3579788711
 H        -0.3714482835       -3.5808846053      -11.9662544852
 H        -1.0320561921       -0.7757685540      -12.4291747606
 H        -1.9337830405       -1.4108572457      -10.9193160350
 H        -5.5113267484       -3.6334446569      -13.5475259130
 H        -6.7439389977       -3.4292625701      -12.2957341770
 H        -4.3926302423       -4.9691964517      -12.0365819490
 H        -5.8501756204       -5.4470272754      -12.1162401845
 H        -4.7199606443       -4.3080780075       -6.4149067898
 H        -5.7840816435       -3.2493427027       -7.4408277893
 H        -4.2626472767       -1.3321771032       -6.8060637807
 H        -3.2277593682       -2.4891135082       -5.8704444043
 H        -7.7399256459        0.0309859858       -3.9623547689
 H        -7.3458018748       -1.0271779456       -5.3593381836
 H        -7.3862918960        1.9604119517       -5.8310349720
 H        -8.9141158429        1.2228493697       -5.5648048909
 H        -8.7935988374        3.5073668560      -10.5168652128
 H       -10.4538018149        2.8950603283       -9.8828565129
 H        -8.8068298777        1.9563340038      -12.3777981568
 H       -10.5002485902        2.8084941870      -12.2849119150
 H       -12.3301055658       -1.4945430666      -10.4797581990
 H       -10.9429445589       -1.3723041378       -9.4980705140
 H       -11.0008474281       -3.9847183202      -10.8578831379
 H       -12.4431272232       -3.7593076452      -10.0687810224
 H       -12.1616018058       -4.0078554783       -5.1277857343
 H       -13.9092310910       -4.5709567976       -5.4669090963
 H       -14.4079542309       -2.4008547538       -4.5618733551
 H       -14.2853277569       -1.9200858335       -6.2635493693
 H       -10.4992541521        1.6064598781       -4.2739316676
 H       -10.6588753481        0.2154439232       -3.1173033797
 H       -11.8004477207        1.9470197737       -1.6461974179
 H       -11.2454453303        3.1708219698       -2.7680999545
 H        -7.1596991372        5.0868255374       -2.3581692291
 H        -8.3268449708        6.3562715334       -2.7196468841
 H        -8.0079051523        4.9756153253       -3.8433321463
 H       -10.3427577748        2.6745604040        0.6022928807
 H       -11.1839126406        3.8515200753       -0.3022850601
 H        -9.9636275721        4.4461381988        0.6699084360
 H        -7.2537542507        4.1667707543       -0.1148642806
 H        -7.1918834141        3.1872005437       -1.4635373764
 H        -7.7694645368        2.4958663597        0.2002392526
 H       -11.8393335755        0.2561484692       -7.4777908166
 H       -10.7410707934        0.1377229983       -6.2120425121
 H       -11.4341403448        1.6631378254       -6.4221021406
 H       -14.8492557814        0.7455618039       -5.1806345667
 H       -14.5427162741        0.0729335734       -6.7424899238
 H       -14.0296496286        1.6651033426       -6.2549095908
 H       -12.9439212998       -5.8403782925       -9.0717316612
 H       -12.1125600842       -6.8316136557       -7.8688828464
 H       -11.2713187660       -6.3529927915       -9.2871000326
 H       -11.2165907526       -5.6326607947       -5.5941652967
 H        -9.8878293509       -4.5137871780       -6.0303662617
 H       -10.0919187255       -6.1416329374       -6.8234151649
 H       -11.8040551441        0.0165818121      -14.0544737338
 H       -12.3594842402       -1.0267007708      -12.8237942468
 H       -11.2685590762       -1.6097797248      -14.1598462659
 H        -8.1148323999       -0.1849717964      -12.5252149664
 H        -8.8919423980        0.3205214178      -14.0174878031
 H        -8.7742366217       -1.4788415462      -13.7322952498
 H        -8.5980535322        3.8682773571       -8.5728656622
 H        -7.3371615027        3.6619167644       -7.3967841681
 H        -9.0519196014        3.0682573348       -7.0788562040
 H        -5.8462336965        1.3739731599       -9.5255264107
 H        -5.5515436393        2.4446670537       -8.2762776232
 H        -6.3412518111        3.0875213630       -9.7003159200
 H        -6.2923799362       -1.7685334943       -2.6457978539
 H        -5.7694799004       -0.1454840168       -2.1473585466
 H        -4.7318794893       -1.6058225156       -1.9479185096
 H        -3.1340480864        0.4756027390       -4.5918831405
 H        -2.8314238601       -1.2040075658       -3.9874025418
 H        -3.4432245473       -0.1479437388       -2.8533012066
 H        -4.5515739683       -6.5460338421       -7.5748712143
 H        -5.1746402730       -7.2453869423       -8.8264397626
 H        -6.1694798252       -6.0205806356       -8.1620204282
 H        -2.8885103450       -5.0681633283      -10.5306256985
 H        -3.6564433679       -6.6247314481      -10.4842085211
 H        -2.5499486071       -6.1717207179       -9.1322267217
 H        -2.6906657226        0.2613898163      -13.2467736496
 H        -3.4671723478        0.0290331090      -11.5083559880
 H        -4.4236533565        0.5822198196      -12.7942925076
 H        -4.8470422640       -0.8433632194      -14.8201668292
 H        -4.3560863457       -2.5061674036      -14.9236010264
 H        -3.0903477158       -1.1783626953      -14.9267294018
 H         2.5061481403       -4.6664809326      -12.2071724760
 H         1.6856528938       -4.5294351039      -10.6125783998
 H         3.4950640560       -4.5552872161      -10.7333153891
 H         3.3912302500       -2.5027729021       -9.4890644378
 H         1.5618190943       -2.0889870071       -9.5076139893
 H         2.7137985298       -0.9246584343       -9.9248885819
 H         9.4949936548        0.6891954618      -11.5705277443
 H         9.3571482694       -0.9938502511      -11.0227153488
 H         7.9833269049        0.0422764204      -10.7509594129
 H         9.7659696785        0.6462939275      -13.6006606880
 H         7.9810582979        1.3491415326      -13.9384845088
 H         8.7584839569       -0.0476862792      -14.7492950788
 H        10.5420668655       -5.6890748706      -15.7401901070
 H        12.0393698714       -4.8386691733      -15.6932910445
 H        11.3959981034       -5.6197359158      -17.2974915010
 H        10.6588094894       -3.9337825426      -19.0311119446
 H        12.0583565150       -3.0447798148      -18.1411948907
 H        10.4463475118       -2.4041259720      -18.3026910547
 H         2.5026675318       -4.0152963485      -17.2578139400
 H         3.6013055875       -4.2962169812      -15.9169571354
 H         3.4080283026       -5.5288573758      -17.0687901094
 H         5.1154376505       -4.0205262706      -19.9113008689
 H         3.2976496128       -4.1558954449      -19.6611051915
 H         4.3344305897       -5.5544669091      -19.2862245168
 Na        6.0733179675       -2.9629154772      -14.5680758930
 Na       -7.7097798808       -1.8858891752       -9.7277856937
