232

 C         4.6634676573       -1.6387297733      -18.8339381898
 C         4.7770671685       -2.4688521476      -17.5944585071
 O         4.7895294931       -1.9412900236      -16.5078632215
 C         4.6764829992       -3.9887771022      -17.8687631862
 C         5.9964550166       -4.8585541437      -17.2205206684
 O         5.9678277409       -5.0527111247      -16.0446810126
 C         7.0367211274       -5.4485509186      -18.1283815094
 C         8.3457812508       -5.5707064825      -17.4151459102
 C         8.8513373510       -4.1500394608      -17.1038051193
 O         8.2168447019       -3.1837019971      -16.7624699548
 C        10.5399170514       -3.9178303292      -17.0298737445
 C        10.6011024091       -2.8040410321      -15.7824246211
 O        10.5341502285       -1.6562385494      -16.0031981432
 C        10.4323835353       -3.3421121077      -14.2700972551
 C        10.1737691963       -2.3197509479      -13.1405826558
 C         8.6262806543       -1.9342944723      -13.1935797417
 O         7.7800732720       -2.7765564963      -13.2361048999
 C         8.1191491245       -0.4458768199      -13.0558893754
 C         6.5659863291       -0.4536041233      -13.1714465450
 O         6.1352405604       -0.5817771490      -14.3179375525
 C         5.6312141044       -0.2784286597      -11.9267156632
 C         4.1089079628       -0.4348813676      -12.2275019972
 C         3.6956225053       -1.8892912169      -12.1682214025
 O         4.2347553489       -2.7461353014      -12.8858089515
 C         2.5393447231       -2.2511466853      -11.2472067563
 C         1.1076466285       -1.7220934348      -11.8016048287
 O         1.0364235316       -0.6570185037      -12.3727786355
 C        -0.1854283510       -2.5341686255      -11.5297515369
 C        -1.5550577123       -1.7031316958      -11.5600734793
 C        -2.7547235949       -2.4760695275      -12.2233916546
 O        -2.7326813482       -3.6883210654      -12.3658278279
 C        -4.0343710208       -1.6529669756      -12.7509378076
 C        -5.3599574671       -2.1317706515      -12.1201078196
 O        -5.8494871640       -1.4847431854      -11.2267342136
 C        -5.9481177861       -3.4771545802      -12.5834674682
 C        -5.3578756686       -4.6478095070      -11.7574015656
 C        -5.3906256460       -4.4123162990      -10.2328743751
 O        -6.3838089954       -3.7556383987       -9.9124193500
 C        -4.2922385860       -5.0613724606       -9.3410722541
 C        -3.7155054422       -3.7616047954       -8.4481344293
 O        -2.8297117888       -3.0708936446       -8.8254468802
 C        -4.5457986848       -3.3650410123       -7.2213948881
 C        -4.1639773793       -2.1355671228       -6.5421260004
 C        -4.7205513106       -2.2620980377       -4.9959592060
 O        -5.1822717331       -3.2932794521       -4.5596617263
 C        -4.7800634126       -0.8930366735       -4.1804236619
 C        -5.8728810124       -0.0767320319       -4.9113251838
 O        -5.5054770123        0.7188845684       -5.7278569634
 C        -7.3994833039       -0.3044100797       -4.8379940093
 C        -8.1983692826        0.6276482616       -5.6778134032
 C        -7.9771073959        0.4049535367       -7.1834245703
 O        -7.7179496333       -0.7345688828       -7.5406717433
 C        -8.0579438620        1.6726006545       -8.2376105821
 C        -8.5575036503        1.3714688847       -9.6445912558
 O        -8.2865570511        0.2935331431      -10.1699746811
 C        -9.1807567738        2.5770136440      -10.4501125235
 C        -9.7555565102        2.2056649414      -11.8266851949
 C       -10.6217591953        0.8534253987      -11.7865518532
 O       -11.7273434258        0.7655992722      -11.3544252673
 C       -10.0347356737       -0.4624213581      -12.3988672412
 C        -9.8520831768       -1.4665671041      -11.2837698746
 O        -9.0109292664       -2.3584536033      -11.4057148047
 C       -10.7677657948       -1.5465402728      -10.1083772301
 C       -11.2847190373       -3.0215831402       -9.7924286073
 C       -10.5976762120       -3.4711266485       -8.5724120456
 O        -9.5247872520       -3.1512886316       -8.2617059228
 C       -11.3267284256       -4.5854374168       -7.7356675328
 C       -12.7396465171       -4.0419218627       -7.1146314205
 O       -13.6529501567       -3.8451080279       -7.8838807654
 C       -12.8186540922       -3.8000050640       -5.5667518737
 C       -13.5245726988       -2.3950463967       -5.4907106843
 C       -12.4310357780       -1.3635981702       -5.4374748964
 O       -11.2768822419       -1.6536532310       -5.1986458015
 C       -12.7417265902        0.1568033905       -5.6003730503
 C       -12.5687700095        0.8982920090       -4.1346507705
 O       -13.5778770889        0.9547396546       -3.4853732068
 C       -11.1361617781        1.2401804543       -3.6036904634
 C       -10.9866241913        1.9030048646       -2.1791537101
 C        -9.4774240135        2.0840635880       -1.8597791330
 O        -8.7567177399        1.1446837675       -1.9972069270
 C        -8.9544210042        3.4580916751       -1.1688194632
 C        -9.0076512486        4.5177029250       -2.2766788740
 O       -10.1065661245        4.7704714902       -2.8197793642
 C        -7.7275171672        5.1567048941       -2.7436972785
 C        -9.9285719426        3.9234839182       -0.0711035532
 C        -7.4915109666        3.1082121272       -0.5800242459
 C       -11.9065878170        0.8647192590       -6.7506503241
 C       -14.2431376405        0.2754072966       -6.0144766350
 C       -11.7611481390       -5.8142089654       -8.6913051788
 C       -10.3974852242       -5.1984383292       -6.6634275221
 C       -11.1775783224       -0.9519421659      -13.3187034138
 C        -8.6761253066       -0.3378331724      -13.1323449457
 C        -8.8764245313        2.9196910293       -7.5923208977
 C        -6.5573109954        2.0881434704       -8.2043702705
 C        -5.2702205491       -1.1562384565       -2.6788609125
 C        -3.4334790458       -0.1627123592       -4.1425483781
 C        -4.9334747916       -6.0857032839       -8.5118324325
 C        -3.1153027830       -5.6689034410      -10.1876298715
 C        -3.8133825778       -0.1054459593      -12.6029452089
 C        -4.2307684153       -1.8604851975      -14.2498835317
 C         2.4314916421       -3.7447983538      -11.1135359908
 C         2.7844175867       -1.7068670949       -9.8682070747
 C         8.8001224387        0.2155254465      -11.7801382117
 C         8.6081365188        0.6116655422      -14.2668633633
 C        11.3900718367       -5.1566030372      -16.7489961858
 C        10.9188691113       -3.2812185337      -18.3904160427
 C         3.4521061758       -4.5127530842      -17.0880703573
 C         4.4878545095       -4.2564960243      -19.3790469690
 H         3.7802663036       -1.9159255645      -19.4577895267
 H         5.6164905322       -1.6947086074      -19.3116653377
 H         4.4806430647       -0.6434952822      -18.5661023322
 H         7.2103491471       -4.7539243436      -18.9441640300
 H         6.7162660270       -6.4504506477      -18.5750425664
 H         9.2691598943       -6.0126417164      -17.7579170248
 H         8.2679016735       -6.0880466349      -16.4205266369
 H        11.3587123106       -3.8173666670      -13.9546536265
 H         9.6595378745       -4.1190930159      -14.1293614530
 H        10.8350811723       -1.4431656482      -13.3801821103
 H        10.4358205193       -2.7919743252      -12.1870502031
 H         5.7915059996        0.7540697846      -11.6597956598
 H         5.9635194813       -0.7201921134      -11.0279834055
 H         4.0476234186       -0.0575189437      -13.1818419396
 H         3.4482612624        0.0853824965      -11.5890936983
 H        -0.0914272118       -3.2028780733      -10.6177982009
 H        -0.2250805383       -3.2776801757      -12.3579348458
 H        -1.3133693779       -0.7407134753      -12.0665130824
 H        -1.8384376007       -1.6702785583      -10.5357649591
 H        -5.7327393274       -3.6380427652      -13.6619968812
 H        -7.0299580305       -3.4257846685      -12.3754161860
 H        -4.4938760239       -4.9983827018      -12.3487741673
 H        -6.0397504994       -5.5049870522      -12.0662479645
 H        -4.7426167105       -4.1330421749       -6.4777678497
 H        -5.5335350078       -3.0987475794       -7.7031726522
 H        -4.6616033146       -1.2306626957       -6.9863766132
 H        -3.1341475460       -2.0267529796       -6.4353202387
 H        -7.6396632548       -0.1248729558       -3.7455042545
 H        -7.5836182603       -1.3522595025       -5.0661516951
 H        -8.0351930212        1.7134045269       -5.4998029492
 H        -9.2460312529        0.4866455687       -5.4966694451
 H        -8.4065522499        3.3537475713      -10.5620594223
 H       -10.0878786647        2.8097073018       -9.8128922664
 H        -8.9135224618        2.0920591996      -12.5296985499
 H       -10.5062975030        2.9859256188      -11.9544511015
 H       -11.6081011630       -0.8747183896      -10.1755599286
 H       -10.1679428546       -1.2559282698       -9.2260098767
 H       -11.0111808439       -3.7391475546      -10.5710523930
 H       -12.3849104831       -3.1096683549       -9.7482697904
 H       -11.8909690383       -3.9085080050       -4.9536655854
 H       -13.5126282013       -4.6905534840       -5.2360864159
 H       -14.0159009496       -2.1010309631       -4.5009716618
 H       -14.2380671575       -2.3555043599       -6.3408574938
 H       -10.7804314238        2.0223565341       -4.3264934165
 H       -10.4575902645        0.3624461907       -3.6575019586
 H       -11.3377149973        1.2016420828       -1.4202602254
 H       -11.5802182687        2.7839080788       -2.1299968561
 H        -7.3651506293        4.5398974791       -3.6305349519
 H        -6.9929079472        5.0453839273       -1.9350547922
 H        -7.9545993649        6.2077737229       -2.9918424325
 H        -9.7612962515        3.2929470136        0.7889524639
 H       -10.9777332226        3.9346594956       -0.2804038164
 H        -9.6994678021        4.9090173483        0.2092708162
 H        -6.6550179774        3.2134382615       -1.2534121157
 H        -7.5985435110        2.0573424803       -0.2918651718
 H        -7.4053963543        3.5581834131        0.4433255541
 H       -12.3298562804        0.6186013859       -7.7732909139
 H       -10.8956214941        0.5821206836       -6.7837395441
 H       -11.9818694443        1.9548328430       -6.7668614319
 H       -14.8364670629       -0.1997822789       -5.2416288264
 H       -14.3672256849       -0.2986022003       -6.9927217574
 H       -14.4979022975        1.3274850791       -6.1130061115
 H       -12.4047357480       -5.4294850979       -9.5336156748
 H       -12.4513130304       -6.3662472129       -8.0699791867
 H       -11.0156038567       -6.5034084075       -9.1733843791
 H       -10.6445360016       -6.2035636347       -6.3675399214
 H       -10.4325718437       -4.5830936058       -5.7792149483
 H        -9.4073820475       -5.1511719394       -6.9409248902
 H       -11.2315304690       -0.4148250478      -14.2764273234
 H       -12.1178544874       -0.7512722633      -12.7783541017
 H       -11.1391490034       -2.1019166618      -13.4484979224
 H        -7.8415430929       -0.1987953265      -12.5539175373
 H        -8.8418931918        0.4459456288      -13.9196110098
 H        -8.5699252897       -1.3455584282      -13.6271775132
 H        -8.8482664247        3.7616816199       -8.2468896606
 H        -8.2680630503        3.1004997428       -6.6977570668
 H        -9.9607953356        2.6967908924       -7.4049555068
 H        -5.9074657997        1.1884735522       -8.4331779093
 H        -6.1733090108        2.3914149420       -7.2230496576
 H        -6.2610752941        2.8977265404       -8.9413098431
 H        -6.0350410460       -1.8884869323       -2.7874373893
 H        -5.8839632653       -0.3460007296       -2.0932713921
 H        -4.4302822498       -1.3694482791       -1.9788452381
 H        -2.6631103328       -0.8608147239       -4.5790342373
 H        -3.1093006435        0.0012086089       -3.1620668842
 H        -3.5597909246        0.7740559346       -4.6699000191
 H        -4.1998239569       -6.4949202564       -7.7066094363
 H        -5.2545527118       -7.0309932583       -9.0119027097
 H        -5.7405126463       -5.6562455780       -7.8566562042
 H        -2.7259935922       -4.9593069574      -10.9509526797
 H        -3.5477891184       -6.5333676708      -10.7128464294
 H        -2.3093690005       -6.0037033210       -9.4267680924
 H        -3.0806850884        0.3002506558      -13.3195559201
 H        -3.5610171547        0.1944215362      -11.5880075682
 H        -4.7937422987        0.2985600664      -12.9222338083
 H        -5.1807939540       -1.5506457519      -14.4956693826
 H        -4.0769507308       -2.9374437696      -14.5004255263
 H        -3.5456994006       -1.3737033186      -14.9269939799
 H         1.8973252291       -4.0794571287      -12.0080689103
 H         1.8430752567       -4.0916733373      -10.2743962289
 H         3.4080651423       -4.2120711527      -11.0743509677
 H         3.8345760199       -1.8026868015       -9.6101188274
 H         2.3459568384       -2.3928152829       -9.1737773464
 H         2.4872848358       -0.7447611613       -9.6060231331
 H         9.6684033618       -0.4146871477      -11.4519886927
 H         8.0778108823        0.3362917944      -11.0561543446
 H         9.1737146569        1.1416778685      -12.1639633360
 H         9.6057932167        0.3292973485      -14.2718666963
 H         8.3150504672        1.6701564185      -13.8838500666
 H         8.0484580147        0.4549037054      -15.1838436069
 H        11.4263845175       -5.2992256049      -15.7201080841
 H        12.4653652282       -5.0035804931      -16.9650622581
 H        11.0161311950       -5.9951936848      -17.4058406772
 H        10.7886476290       -4.0048089740      -19.1587218800
 H        11.9601004109       -2.8974309741      -18.2404012517
 H        10.4365272523       -2.3357169365      -18.6029307372
 H         2.5781734900       -4.0511961822      -17.5253621797
 H         3.4713908536       -4.2460024521      -16.0918143427
 H         3.4080801430       -5.5251682764      -17.1946611001
 H         5.2692419457       -3.6579772764      -19.8828113516
 H         3.5866061138       -3.7074095703      -19.7062754079
 H         4.4046818901       -5.3864506150      -19.4802271622
 Na        5.6805982154       -3.0600459392      -14.6678871949
 Na       -7.7797041632       -2.0254944978       -9.5905519307
