232

 C         5.0094815402       -1.4344198461      -18.7775642677
 C         4.6582870739       -2.4651655039      -17.7346009984
 O         4.4933033024       -2.0593219200      -16.5961819975
 C         4.5966784893       -3.9917720060      -17.9459938865
 C         5.9273408380       -4.6080299052      -17.2657405993
 O         5.9385011031       -4.7203282428      -16.0386110485
 C         6.9870442888       -5.3661845601      -18.1484183712
 C         8.2494207806       -5.6764555947      -17.3625156323
 C         8.9091481085       -4.1395775813      -17.0356437696
 O         8.0477691568       -3.2766716906      -16.9788231378
 C        10.4294849388       -3.8913517014      -16.9322266675
 C        10.5164888927       -2.8146977464      -15.7131476911
 O        10.4910065233       -1.6299518448      -16.0313050842
 C        10.4788463557       -3.3251576682      -14.3168051924
 C        10.0145220813       -2.1670191282      -13.3686533001
 C         8.4539385324       -2.0159871405      -13.2868010521
 O         7.6053595173       -2.9111376841      -13.3398197127
 C         8.0456395556       -0.4421543800      -13.2724476719
 C         6.4253941898       -0.3848121841      -13.2307777481
 O         5.8949815155       -0.5900653151      -14.2803023110
 C         5.4639734463       -0.0441196703      -11.9559984644
 C         4.0384271106       -0.3667174957      -12.4009428280
 C         3.5692259291       -1.7417793660      -12.1931649523
 O         4.1130299477       -2.6328353197      -12.7306589757
 C         2.4252404579       -2.2431958513      -11.2616021233
 C         1.0655853063       -1.6664054894      -11.6787238905
 O         0.9898731990       -0.5079820830      -11.9528653727
 C        -0.2628987271       -2.4763631343      -11.7199196191
 C        -1.5374387499       -1.5286600035      -11.6768000878
 C        -2.7411966947       -2.2874391684      -12.1673314338
 O        -2.8444803808       -3.4810289873      -12.0488025803
 C        -4.0874494980       -1.5381380741      -12.7807487542
 C        -5.3667204874       -2.0791326537      -12.0089033640
 O        -5.6892063375       -1.4102165875      -11.0387378749
 C        -6.0290921265       -3.4108963320      -12.4312216056
 C        -5.4783142320       -4.7142599903      -11.7401407860
 C        -5.4110260802       -4.5872530789      -10.2892680404
 O        -6.2674916939       -4.0105452292       -9.6569118338
 C        -4.1837073809       -5.1062060771       -9.3593654636
 C        -3.6542756008       -3.7569855044       -8.5676650790
 O        -2.7477062002       -3.0274370643       -8.9520331174
 C        -4.4847481119       -3.4252067318       -7.3672075973
 C        -4.0471655421       -2.1920771200       -6.4683192081
 C        -4.7439793285       -2.3192245028       -5.0736929626
 O        -5.0061927244       -3.3740616322       -4.5427816271
 C        -4.8136747562       -0.9693616133       -4.2403387900
 C        -5.8907666223       -0.1142064053       -4.8896564509
 O        -5.6644339189        0.7254331904       -5.7648566796
 C        -7.3477130251       -0.5590246612       -4.6478939699
 C        -8.2057093571        0.4507993148       -5.4996009605
 C        -7.8970609262        0.4212807435       -7.0330132292
 O        -7.7854805740       -0.6669122353       -7.5232178216
 C        -7.9942309052        1.7342632517       -8.0330684682
 C        -8.4285839740        1.3605571252       -9.4721640701
 O        -8.1975334784        0.2971831259      -10.0309153474
 C        -9.1274572923        2.5054166475      -10.2730316678
 C        -9.4292156707        2.1446804443      -11.8115053355
 C       -10.5643595206        0.9831509825      -11.9696663958
 O       -11.7370457429        1.1282628174      -11.6315775202
 C       -10.1279343925       -0.4695581064      -12.6028255450
 C        -9.8866112965       -1.4779186525      -11.4157502369
 O        -9.0125654789       -2.3169042628      -11.5260412420
 C       -10.7499408091       -1.5533560594      -10.1610508627
 C       -11.2034053691       -2.9133919453       -9.6250087928
 C       -10.5654997950       -3.4811809326       -8.3926412513
 O        -9.4128305269       -3.0202031237       -8.0223780673
 C       -11.1893224404       -4.6685977384       -7.7255537153
 C       -12.5431082477       -4.1080432597       -7.1281003727
 O       -13.4818015636       -3.9153368779       -7.8547600430
 C       -12.6698225175       -3.8388787405       -5.5401015783
 C       -13.2508621786       -2.4788782490       -5.1345084955
 C       -12.3791719401       -1.1949474628       -5.4681835869
 O       -11.1602369712       -1.2746879106       -5.5693733887
 C       -12.9685184016        0.2581252464       -5.5102102743
 C       -12.6999797699        0.8231158598       -4.1281271106
 O       -13.5600241065        0.8106469187       -3.2437627678
 C       -11.1782913218        1.2160658888       -3.8259951967
 C       -11.0006074172        1.8273788331       -2.4630150040
 C        -9.5165788503        1.9427677373       -2.0513864866
 O        -8.6956384568        1.0609349705       -2.2900742860
 C        -8.9896469948        3.2863878265       -1.1811698196
 C        -8.8704773968        4.3307617764       -2.4083434207
 O        -9.8154671663        4.6253641444       -3.0825356486
 C        -7.5932428526        5.0854775184       -2.7545424294
 C        -9.9938684298        3.7438052951       -0.0940713768
 C        -7.6253894433        3.0161188358       -0.6304990822
 C       -12.1240137801        0.8902117563       -6.6221503840
 C       -14.3871916161        0.3187964088       -5.9423216332
 C       -11.5962239713       -5.7967234116       -8.7377555524
 C       -10.1840051576       -5.2496636855       -6.6577408094
 C       -11.2053225431       -1.1108047378      -13.5445372378
 C        -8.8285550533       -0.3011544494      -13.4174569389
 C        -8.9463411475        2.7396681019       -7.3109653261
 C        -6.5882879549        2.3435506587       -8.2204241456
 C        -4.9934092933       -1.3058650340       -2.6831030810
 C        -3.4710522230       -0.1468039393       -4.3491936349
 C        -4.8522906128       -6.0260354109       -8.3474820320
 C        -2.8971295093       -5.7580412828       -9.9559541613
 C        -3.9989741416       -0.0341018684      -12.5934579448
 C        -3.9981628468       -1.9719311687      -14.2202348920
 C         2.4782670764       -3.7352925831      -11.1123645412
 C         2.6736132633       -1.5406740143       -9.8867401907
 C         8.6569438394        0.0871087439      -11.9114420266
 C         8.5971965228        0.2162768180      -14.5565405119
 C        11.3875377831       -5.0682333909      -16.6588269468
 C        10.7571304119       -3.1339050178      -18.2613428730
 C         3.4481140564       -4.5753597101      -17.1257682040
 C         4.4407928758       -4.5234772161      -19.4455197906
 H         4.3024257691       -1.4125968636      -19.5455559065
 H         6.0666905309       -1.5615890429      -19.0349692644
 H         4.9714634704       -0.3921104088      -18.2807505945
 H         7.3255711483       -4.7778565454      -19.0344931105
 H         6.7061908529       -6.3060534557      -18.5558318560
 H         9.0053197870       -6.2109084969      -17.9270238052
 H         8.1450243948       -6.2710079176      -16.4820502566
 H        11.3613076182       -3.8920068757      -13.9522368104
 H         9.5953524108       -3.9885700939      -14.3395086830
 H        10.4334742160       -1.2430952403      -13.7356396097
 H        10.4490618700       -2.3045645657      -12.3538645473
 H         5.5398414839        0.9766372825      -11.5351995851
 H         5.7176742228       -0.6329146831      -11.0334430717
 H         4.0117414932       -0.1733968021      -13.5434663507
 H         3.2789959954        0.3491965153      -11.9250394928
 H        -0.2626459983       -3.2492375096      -10.9953684910
 H        -0.3023215912       -3.0579592932      -12.6389318663
 H        -1.3194294650       -0.7597818541      -12.3746376892
 H        -1.6516422281       -1.2284840051      -10.6013495356
 H        -5.9616716706       -3.4723479631      -13.5020983768
 H        -7.0677930386       -3.3546030175      -12.1262146382
 H        -4.5055824178       -4.9938527388      -12.1020610988
 H        -6.1109917254       -5.4563794954      -12.1227385787
 H        -4.3906761743       -4.3860308271       -6.8187531997
 H        -5.5263510451       -3.3693967903       -7.6606356380
 H        -4.3512799304       -1.2403058853       -6.8554646895
 H        -2.8934052461       -2.2628074377       -6.3784909449
 H        -7.5886478335       -0.4846094171       -3.6168294710
 H        -7.4994820734       -1.6070701070       -4.9937357436
 H        -8.2713394718        1.4528325632       -5.2202918336
 H        -9.2142857503        0.0037180122       -5.3341150254
 H        -8.5401762972        3.4176029039      -10.2292222867
 H       -10.0638128978        2.5532662835       -9.7719265952
 H        -8.4679877218        1.8446622422      -12.2180308921
 H        -9.9359493412        3.0272472381      -12.2246413274
 H       -11.6393164584       -0.9203964940      -10.2841303926
 H       -10.1823059039       -1.1415718771       -9.3554253660
 H       -11.1243547857       -3.6520924532      -10.4227407467
 H       -12.2556264512       -2.8473384974       -9.4086980266
 H       -11.6764814032       -3.8465134677       -5.0912143527
 H       -13.2058080224       -4.5798821694       -5.0116820378
 H       -13.4568545639       -2.5306792612       -4.0944985152
 H       -14.1823424381       -2.3577109104       -5.6850864666
 H       -10.7381452176        1.8193383634       -4.6042636408
 H       -10.5823995048        0.2973827728       -3.8123566413
 H       -11.6449654842        1.3502683144       -1.7045639764
 H       -11.3504160932        2.9005438842       -2.5359510746
 H        -7.4384368292        4.8558210975       -3.7523491636
 H        -6.6917983224        4.8951058308       -2.2026223773
 H        -7.8974963767        6.0963537922       -2.6380381611
 H       -10.0013926767        3.0399285508        0.7397728765
 H       -10.9986971953        3.9409794389       -0.5166892652
 H        -9.6261264065        4.6423120131        0.4642688963
 H        -7.1555103942        2.2256212812       -1.2418210758
 H        -7.6883342750        2.8787205501        0.4385762860
 H        -7.0105005443        3.8851633745       -0.6206485913
 H       -12.4498436182        0.5150708491       -7.5746428621
 H       -11.0242177166        0.7645140874       -6.4972528866
 H       -12.3480435858        1.9202828294       -6.7330750549
 H       -15.0172605398        0.2191818704       -5.1127468207
 H       -14.5767668096       -0.3871919484       -6.6602568159
 H       -14.4784784029        1.2896022136       -6.3779120783
 H       -12.5705796509       -5.7088970876       -9.2019973279
 H       -11.5575110617       -6.7678846120       -8.2464619846
 H       -10.8591506414       -5.8429910540       -9.4979340073
 H       -10.7693275928       -5.4972242016       -5.7494942970
 H        -9.3961064973       -4.5027544741       -6.3830329992
 H        -9.5782832371       -6.1962046850       -6.9101118028
 H       -11.3680171599       -0.3589726670      -14.2929665839
 H       -12.1773382181       -1.3737119095      -13.1348006649
 H       -10.7822993319       -1.9457728108      -13.9767492070
 H        -8.0050125466        0.0404323733      -12.6529254007
 H        -9.0020636549        0.3519758871      -14.2411826982
 H        -8.4611398835       -1.2625624567      -13.7173300443
 H        -8.9499776561        3.6812403715       -7.8937023181
 H        -8.5412258570        2.9976941116       -6.3048003158
 H        -9.9304592160        2.4125365306       -7.2878492852
 H        -5.8658435433        1.6325102826       -8.5918394135
 H        -6.1291187991        2.7316593531       -7.3043783193
 H        -6.5704236708        3.1647485225       -8.9121341372
 H        -5.4244537999       -2.2705053144       -2.5980924786
 H        -5.6903578980       -0.7369519896       -2.1472986340
 H        -4.0179273223       -1.2091579884       -2.2326877705
 H        -2.7301913029       -0.7633287612       -3.9033741345
 H        -3.3616003697        0.8750256184       -3.8933659619
 H        -3.3346760748       -0.1049291800       -5.4301705118
 H        -4.3676825182       -6.2329509132       -7.4811466870
 H        -5.0930635965       -6.9184494399       -8.9169447547
 H        -5.7742865060       -5.6857785427       -7.9469582157
 H        -2.3113403457       -4.9802172548      -10.4040064655
 H        -3.1118926585       -6.5342286275      -10.7104200958
 H        -2.3945859162       -6.1670515372       -9.1462786383
 H        -3.0212305244        0.3664237083      -12.8886015210
 H        -3.9834551141        0.1299882134      -11.4790860277
 H        -4.7860617729        0.4674552354      -13.1164266147
 H        -4.9032682019       -1.5598501076      -14.8333632361
 H        -3.8309952211       -3.0094931939      -14.3944759397
 H        -3.1186000531       -1.5319406323      -14.7321736272
 H         2.1763152403       -4.3163179367      -11.9988774772
 H         1.8200706862       -4.0410388621      -10.2651433898
 H         3.5178427600       -3.9871867462      -10.7889476694
 H         3.4897253248       -2.0155243623       -9.3110432466
 H         1.8554030620       -1.5692013230       -9.1429874123
 H         3.0009214380       -0.4692713536      -10.0813120852
 H         8.5015425680       -0.7303427408      -11.2650042232
 H         8.0653314648        0.9526599115      -11.4939857044
 H         9.7375067287        0.2181451762      -12.0421991052
 H         9.6534343548       -0.1035226011      -14.7567725360
 H         8.4872099395        1.2347660350      -14.4039804998
 H         7.8747561684       -0.0772162809      -15.2815058987
 H        11.1550490149       -5.7491168717      -15.7504215184
 H        12.3570183562       -4.5786241458      -16.4911026030
 H        11.5489590667       -5.6095110246      -17.5734822194
 H        10.0950170087       -3.6582213053      -19.0191895380
 H        11.7952672640       -3.0545339636      -18.5370458499
 H        10.4609140449       -2.1109589813      -18.1509546214
 H         2.5506468323       -4.1792461291      -17.5432155331
 H         3.4829709891       -4.2411640672      -16.0415834326
 H         3.3695166796       -5.7054521485      -17.2079397914
 H         5.2217392188       -4.1174605364      -20.1001937995
 H         3.4651885019       -4.1646537411      -19.7360571709
 H         4.3635806752       -5.5725856543      -19.3879857758
 Na        5.6505109032       -3.1145125101      -14.5065215412
 Na       -7.7096749303       -2.0660714294       -9.3374503634
