232

 C         5.1488614083       -1.4978810507      -18.7277050153
 C         4.7376378074       -2.4681843792      -17.6342522174
 O         4.4140781509       -2.1703103223      -16.5169441821
 C         4.6194754032       -4.0838781986      -17.9508053090
 C         5.9076192846       -4.6834337898      -17.2438198757
 O         6.0252524040       -4.5478578583      -16.0576433923
 C         6.9125698002       -5.3764239475      -18.1290588850
 C         8.2223866571       -5.5315943825      -17.4108596093
 C         8.7684271504       -4.1346311487      -17.0653183079
 O         8.0101505576       -3.2421276015      -17.0304632310
 C        10.3050304834       -3.8731237410      -16.9931677854
 C        10.4151261919       -2.8037483916      -15.7343563016
 O        10.6170305154       -1.6794953126      -16.0397681861
 C        10.3680299363       -3.3404099078      -14.2840782253
 C         9.8470756114       -2.2445701761      -13.2956574723
 C         8.4213322475       -1.9847694699      -13.4316835399
 O         7.6834196590       -2.9339520017      -13.4773040706
 C         7.8371311461       -0.5671396046      -13.2889958414
 C         6.3605859815       -0.5023986113      -13.3043950188
 O         5.7930887885       -0.6677738053      -14.3780841632
 C         5.5456137113       -0.0374001442      -12.1343996651
 C         3.9920018681       -0.3142969757      -12.4097144379
 C         3.5971998430       -1.8148852852      -12.2085553140
 O         4.1110166664       -2.7309124796      -12.8104714969
 C         2.4178716470       -2.1542681014      -11.1042132529
 C         1.0269004482       -1.5195925671      -11.6542507198
 O         0.9604277518       -0.3254354122      -11.8122158723
 C        -0.3185714412       -2.3628257689      -11.8088340905
 C        -1.5318017504       -1.4787746384      -11.8064031173
 C        -2.7892258937       -2.2613261240      -12.0427036212
 O        -2.7183535111       -3.4828421113      -12.0258253524
 C        -4.0006224224       -1.5098047693      -12.6913929723
 C        -5.3575962281       -2.0853591697      -11.9355306490
 O        -5.7294085996       -1.5600508520      -10.9186458972
 C        -6.1006685733       -3.3075120564      -12.4231259261
 C        -5.4432664810       -4.5317608731      -11.7374788462
 C        -5.3912333281       -4.4687321250      -10.1817694208
 O        -6.3753928086       -4.1071702324       -9.5556001236
 C        -4.1194171034       -5.1372780807       -9.1948149427
 C        -3.6521699865       -3.7431160985       -8.4506809670
 O        -2.8018835666       -3.1325031465       -9.0274531587
 C        -4.4785122567       -3.4862196480       -7.2409240505
 C        -3.9672166508       -2.2497829128       -6.5092759067
 C        -4.5557214011       -2.3371813649       -5.1149498775
 O        -4.9579594267       -3.4016565437       -4.6628260543
 C        -4.6951217712       -1.0293112305       -4.2740501173
 C        -5.9099606961       -0.1740437453       -4.9710568760
 O        -5.6112966962        0.7054226250       -5.7214508809
 C        -7.4022516115       -0.5168422378       -4.7529294527
 C        -8.3113658317        0.4271364108       -5.5493271950
 C        -7.8996862727        0.3830656022       -7.0118980795
 O        -7.6319145842       -0.6633089833       -7.5361192129
 C        -8.0266494936        1.7288992382       -7.8821552514
 C        -8.4843581253        1.3466977960       -9.3290215165
 O        -8.1405377059        0.2705949880       -9.8920251421
 C        -9.2631789484        2.4363652022      -10.1459624915
 C        -9.3210508687        1.9579773499      -11.6401520940
 C       -10.4308916746        0.9586610167      -12.0040020506
 O       -11.5721844892        1.2446342027      -11.7786222373
 C       -10.0779385941       -0.4095936328      -12.6384922133
 C        -9.9252743595       -1.5268590752      -11.4640119904
 O        -8.9786209385       -2.2079375231      -11.5547425440
 C       -10.8749271446       -1.4395883410      -10.2033660420
 C       -11.2528154595       -2.9505397438       -9.6387441835
 C       -10.4724523150       -3.4632866422       -8.4120504537
 O        -9.3690410996       -2.9988461785       -7.9994815582
 C       -11.1561896567       -4.7161966177       -7.6860018668
 C       -12.4508615441       -4.1176275726       -7.0785842708
 O       -13.4134778592       -3.8231481897       -7.7344501730
 C       -12.4780292101       -3.7860416027       -5.4781832521
 C       -13.1720806024       -2.4643395969       -5.1042858804
 C       -12.3553499518       -1.1849187069       -5.5055933407
 O       -11.1725306377       -1.3490372802       -5.7145544916
 C       -12.9935536402        0.2430349121       -5.5365341708
 C       -12.6646381477        0.7752156737       -4.0871221488
 O       -13.4989144684        0.7791936185       -3.2149944796
 C       -11.2091274925        1.2269130320       -3.7972487203
 C       -10.9539658785        1.9558016788       -2.4872532439
 C        -9.4754504429        1.9435766615       -2.1355894129
 O        -8.8132938509        1.0421137517       -2.4654282014
 C        -8.9316337456        3.1719504290       -1.3392198022
 C        -8.8750725251        4.3433041022       -2.4497034923
 O        -9.8914842084        4.4535058522       -3.1771727732
 C        -7.5208262273        5.0307236458       -2.7005302553
 C       -10.0390751095        3.6922887933       -0.3670290079
 C        -7.6246610898        2.8391662665       -0.5673185119
 C       -12.1800739264        1.1013451206       -6.6257752352
 C       -14.5772098392        0.2798457440       -5.7246112066
 C       -11.4418728214       -5.7477714803       -8.7357363577
 C       -10.1097768929       -5.3607831727       -6.6230681180
 C       -11.2702385585       -1.0314720571      -13.5116795523
 C        -8.8485295636       -0.3399500475      -13.5061050595
 C        -8.9854325502        2.7367416296       -7.3007788458
 C        -6.5645357357        2.3245639543       -8.1083496539
 C        -4.9397896259       -1.2538383113       -2.7992806798
 C        -3.4281794791       -0.1344837806       -4.3858048549
 C        -4.7136063393       -6.1963325610       -8.2325541298
 C        -2.8838140460       -5.7947199739       -9.8958380970
 C        -4.0383867783        0.0388504525      -12.6398415109
 C        -3.9031134352       -1.9346020458      -14.1977978360
 C         2.3621343656       -3.6819661085      -11.0618115015
 C         2.6212978646       -1.4655938900       -9.7685991715
 C         8.4595939350        0.1257522963      -11.9803222956
 C         8.4205949409        0.1909823355      -14.5492097058
 C        11.2273165445       -4.9916013177      -16.6007186782
 C        10.7484129286       -3.0991219930      -18.2587513152
 C         3.3798306283       -4.5313011816      -17.2390727287
 C         4.4645123263       -4.5828548047      -19.4647524926
 H         4.3386198596       -1.5691332185      -19.5163597476
 H         6.1539047395       -1.8096574896      -19.0097471753
 H         5.2543648027       -0.4268680074      -18.4511298031
 H         7.1047647012       -4.8793591614      -19.0577991180
 H         6.7031935922       -6.3801596530      -18.4509124280
 H         9.0046612392       -5.9492535106      -18.0496985308
 H         8.3163684855       -6.1328413237      -16.5279314814
 H        11.4245242294       -3.4028729236      -14.0639166076
 H         9.8530373628       -4.2886376999      -14.1131556434
 H        10.5321548726       -1.4024909654      -13.3999346244
 H        10.0254101548       -2.5880159082      -12.2830711375
 H         5.7083973134        1.0274386132      -11.8481625670
 H         5.8331201781       -0.5345446708      -11.1330431075
 H         3.6953223085        0.0100547990      -13.4360919408
 H         3.4466243674        0.3536555586      -11.6278032730
 H        -0.3340367044       -3.0423132912      -10.9799432256
 H        -0.3236994994       -3.0543011194      -12.6292724111
 H        -1.3822038896       -0.7937897596      -12.6301135580
 H        -1.4415981765       -1.0417676587      -10.7874200654
 H        -5.9605797197       -3.3395169412      -13.5173113741
 H        -7.1495380729       -3.2056781066      -12.1787082822
 H        -4.5529862265       -4.8758343577      -12.3029238878
 H        -6.2092445224       -5.3178840002      -11.9328115181
 H        -4.6026035430       -4.4307619304       -6.7490841449
 H        -5.4852775946       -3.2479185533       -7.6445516818
 H        -4.2636990431       -1.3232741171       -7.0297299480
 H        -2.8805012932       -2.3459672224       -6.4952193753
 H        -7.6243686201       -0.3635572477       -3.7283704994
 H        -7.5394336615       -1.5709085361       -5.0006341415
 H        -8.3517958554        1.5158819293       -5.2460354508
 H        -9.3363860246       -0.0210219742       -5.3155094718
 H        -8.6684719427        3.2938027707      -10.1336440105
 H       -10.2936279909        2.5889462639       -9.7508003262
 H        -8.2807739252        1.6933567556      -11.8808544421
 H        -9.6925220970        2.7976940149      -12.1371519481
 H       -11.7610787586       -0.7538468768      -10.3758337730
 H       -10.2410240997       -0.9994988300       -9.4231931449
 H       -11.1861543037       -3.6353059506      -10.5123545902
 H       -12.2945327778       -3.0124114339       -9.2632647480
 H       -11.5031420042       -3.7154495301       -5.1216774535
 H       -12.9278816611       -4.5227728525       -4.8615398441
 H       -13.2671226613       -2.5555030075       -4.0560129560
 H       -14.1595373692       -2.4074745101       -5.5391241892
 H       -10.8499071801        1.8735020098       -4.6706363516
 H       -10.5524073025        0.3781006656       -3.8745817350
 H       -11.4999085759        1.5035616985       -1.6235757792
 H       -11.3917878524        2.9522482208       -2.5700874776
 H        -7.3400821971        4.9080155954       -3.7642639787
 H        -6.7332279038        4.5142897156       -2.1564298938
 H        -7.5542853957        6.0333508945       -2.3565916293
 H       -10.3720174150        2.8823223267        0.3448638350
 H       -10.9036852420        4.1589213902       -0.9463661011
 H        -9.6279615827        4.3572339027        0.3964297243
 H        -7.1285594751        2.0565759385       -1.1114845436
 H        -7.8383368447        2.7136673934        0.4927557785
 H        -6.9321077034        3.6876606244       -0.5128148409
 H       -12.4376058934        0.8667803960       -7.7327941060
 H       -11.1259970356        1.1670743933       -6.4755223149
 H       -12.5979607476        2.0752781172       -6.5592968690
 H       -15.0485146023        0.0146607080       -4.8167129168
 H       -14.8687218754       -0.3885442112       -6.5764439966
 H       -14.8077808690        1.3105693962       -6.0021573610
 H       -12.3759441957       -5.6772982395       -9.3269728378
 H       -11.4225837005       -6.7196455686       -8.3656087348
 H       -10.5699655191       -5.7271232952       -9.3717975339
 H       -10.5503844157       -5.6248962736       -5.6333042027
 H        -9.2171322743       -4.6867025456       -6.4981984328
 H        -9.6432472532       -6.2693751815       -6.9882633839
 H       -11.6266214555       -0.3372230895      -14.1838729293
 H       -12.1084047160       -1.3566576749      -12.9181689187
 H       -10.8599806075       -1.8961737081      -14.0176854909
 H        -7.9931562800       -0.1086484273      -12.9496391349
 H        -9.1083794897        0.3632212009      -14.2696748229
 H        -8.6415457309       -1.3151420533      -13.9609916185
 H        -9.0559373304        3.6165894499       -7.9514034136
 H        -8.6708466334        3.1071749702       -6.2454265409
 H        -9.9971255187        2.2839344180       -7.2822894809
 H        -5.9367506771        1.6866015100       -8.7250495652
 H        -6.0412362990        2.5573046262       -7.2371215082
 H        -6.6129052420        3.2625246186       -8.6348029121
 H        -5.4601098767       -2.1314670441       -2.7359300850
 H        -5.6968856002       -0.5299962082       -2.3066183797
 H        -3.9834004628       -1.3198467489       -2.1937118953
 H        -2.6460249755       -0.3598756040       -3.6246746899
 H        -3.6594761436        0.9291521167       -4.2376105427
 H        -3.0853689240       -0.2244868681       -5.4400572592
 H        -4.1216305233       -6.3497917474       -7.3699071172
 H        -5.0524418025       -7.0648520352       -8.8068390593
 H        -5.5932974012       -5.8940820706       -7.6744036800
 H        -2.2886630439       -4.9928295602      -10.1905993734
 H        -3.1314323369       -6.3825997884      -10.7363999774
 H        -2.3916149190       -6.3928952157       -9.1707225349
 H        -3.0902109763        0.4601328667      -12.9298184625
 H        -4.0804928289        0.3476312870      -11.5702425357
 H        -4.8142338657        0.3976190691      -13.2558091616
 H        -4.7036114187       -1.4383059990      -14.7252320373
 H        -3.7996453388       -2.9804647285      -14.4658500205
 H        -2.9988292757       -1.5101379702      -14.6725144954
 H         2.3244985778       -3.9951611552      -12.0953457063
 H         1.5650047999       -4.1720118655      -10.5280413598
 H         3.3119148161       -4.0419924241      -10.6465930335
 H         3.3724238573       -1.9636122570       -9.1117610107
 H         1.7339426956       -1.5289305384       -9.1204103971
 H         2.9273233791       -0.4129603577       -9.8841983952
 H         7.9007721833       -0.0597530959      -11.0421431730
 H         8.4087353212        1.1802597506      -12.1746522805
 H         9.5120620347       -0.2392420644      -11.9261480775
 H         9.4935385078        0.1326135138      -14.4406424450
 H         8.1060714124        1.2693700459      -14.3880394165
 H         7.9903703869       -0.2163133231      -15.4160793889
 H        10.6657964195       -5.6906482287      -15.9412259698
 H        12.2075807320       -4.6266348577      -16.1379655079
 H        11.5512652820       -5.5382982909      -17.4859414598
 H        10.2520942523       -3.6221710928      -19.1196695250
 H        11.8379838335       -2.9347730995      -18.4011073121
 H        10.3415236353       -2.1379960748      -18.1682567566
 H         2.4551133977       -4.1266121124      -17.7932395723
 H         3.3366937486       -4.2165796890      -16.1408308795
 H         3.3112632427       -5.6620701004      -17.3185221698
 H         5.3565761000       -4.2221386189      -19.9767925939
 H         3.5132759450       -4.2546626175      -19.8220840409
 H         4.4182921350       -5.6767764532      -19.5034792608
 Na        5.5845031539       -2.9371294948      -14.5005629680
 Na       -7.5514505593       -2.0798157675       -9.4172541871
