232

 C         5.3927637593       -1.7791704427      -18.7159324467
 C         4.6597730785       -2.6231400133      -17.6181969166
 O         4.3386395879       -2.1581765319      -16.5507804812
 C         4.5742354870       -4.1582606550      -17.9179681341
 C         5.7783286810       -4.8426803117      -17.2127146014
 O         6.0237105474       -4.6802540050      -16.0114433648
 C         6.7631017987       -5.6369626015      -18.0134026424
 C         8.2529251203       -5.3569633841      -17.4869879584
 C         8.6891811988       -3.8770232643      -17.1664937420
 O         7.8511433316       -2.9672864490      -17.3095857140
 C        10.2390346631       -3.6954776968      -16.9113885988
 C        10.5336735898       -2.6875911905      -15.6517996736
 O        10.7114206569       -1.4945014961      -15.8022465558
 C        10.3503659464       -3.3747540776      -14.2575923667
 C         9.7499067302       -2.3922200725      -13.2153911981
 C         8.2843268153       -1.9898435413      -13.5134288111
 O         7.6073230635       -2.9654805126      -13.8269972692
 C         7.7695898737       -0.5423012981      -13.4250841681
 C         6.1548317451       -0.5119384633      -13.4859874628
 O         5.7215011362       -0.5673064689      -14.5970974818
 C         5.3360389317       -0.1011896656      -12.2433765125
 C         3.8147297773       -0.2751496219      -12.3086680794
 C         3.3972934244       -1.7654971491      -12.0672578089
 O         3.8728280052       -2.6914090035      -12.6800301938
 C         2.2484944404       -2.0065622409      -10.9929646524
 C         1.0110351875       -1.2214855978      -11.5390716026
 O         1.1547054173       -0.0328798700      -11.6292717877
 C        -0.2107904023       -2.0669774596      -11.8076848835
 C        -1.4974203217       -1.1970908239      -12.0222573051
 C        -2.6795328259       -2.1261862155      -12.1403836771
 O        -2.5416803847       -3.3081751326      -11.9691431846
 C        -3.9744366068       -1.5174812814      -12.6636664918
 C        -5.1554162510       -2.1126425585      -11.7366996030
 O        -5.4959269868       -1.4329695847      -10.7744983639
 C        -5.8849173745       -3.4743042142      -12.1149532227
 C        -5.2921659771       -4.7102722063      -11.4787194820
 C        -5.4726282969       -4.7684104037       -9.9780057143
 O        -6.4391663740       -4.2770954936       -9.3879717039
 C        -4.2121701751       -5.2823443996       -9.3043260319
 C        -3.6919839063       -3.9152447417       -8.5157012206
 O        -2.7755060707       -3.2044424528       -8.9679893690
 C        -4.4372925539       -3.4990022421       -7.1732480559
 C        -3.8486950944       -2.3118505416       -6.4815294534
 C        -4.4679458906       -2.2597143417       -5.1004033249
 O        -4.8274172356       -3.2515014180       -4.5415196515
 C        -4.6890677377       -0.8684851508       -4.3005636130
 C        -5.7297579943       -0.1652364644       -4.9980731983
 O        -5.5499927938        0.7660387631       -5.7963968069
 C        -7.1508629931       -0.6791842773       -4.7546597465
 C        -8.1546630049        0.2045543034       -5.4854405095
 C        -7.7999054422        0.3211954606       -6.9905364585
 O        -7.1976803540       -0.6406749507       -7.5229087015
 C        -8.0871122495        1.6486532710       -7.7704794151
 C        -8.5083348060        1.2169359368       -9.2432946176
 O        -8.1674054202        0.2104105660       -9.7747902475
 C        -9.4231024556        2.1592297786      -10.1120654084
 C        -9.1692292453        1.8816136583      -11.6315741106
 C       -10.3055011508        0.9741161852      -12.0576251258
 O       -11.4453845614        1.4126750732      -11.9205245117
 C       -10.1231750960       -0.4791164891      -12.5878309096
 C        -9.8825555713       -1.4638832682      -11.4246977353
 O        -8.8262633834       -2.2000443902      -11.3652662872
 C       -10.8777158846       -1.5531626681      -10.2759759751
 C       -11.1396025389       -2.9221305258       -9.7552920787
 C       -10.2510029791       -3.3609894949       -8.5649389362
 O        -9.1596890305       -2.9005080157       -8.2714086488
 C       -10.9041729037       -4.5608307048       -7.7498526669
 C       -12.2165310558       -3.9831901550       -6.8396710078
 O       -13.2048594107       -3.7342290097       -7.5211687337
 C       -12.0819783951       -3.6996590830       -5.3928052907
 C       -13.0491844847       -2.4375505502       -5.2117680831
 C       -12.3405519247       -1.2025920953       -5.5777070476
 O       -11.2451281685       -1.1530145744       -6.1540788012
 C       -13.1082380697        0.1827440202       -5.4451647681
 C       -12.6588721028        0.6916929640       -4.0091552658
 O       -13.4609336190        0.6825711528       -3.0930599864
 C       -11.2392917362        1.1879290734       -3.9170429770
 C       -11.0424857572        1.8246359200       -2.5538320406
 C        -9.6054115590        1.8795365783       -2.2296951986
 O        -8.8307266663        0.9831750296       -2.7058810752
 C        -9.0581646386        3.0624474977       -1.4280164558
 C        -8.7589092353        4.2141642939       -2.5611980554
 O        -9.5846718639        4.4123665476       -3.3768025006
 C        -7.3917308602        4.9812515800       -2.7374093077
 C       -10.0973677260        3.7703614579       -0.4422966965
 C        -7.8346382122        2.5489956370       -0.6258514769
 C       -12.7657617720        1.2048703038       -6.5611421788
 C       -14.6010151743       -0.0226417219       -5.4282487986
 C       -11.5092021306       -5.6293798194       -8.6858188257
 C        -9.9808193047       -5.1885745229       -6.7255296006
 C       -11.4476127429       -0.7448965056      -13.2833975786
 C        -8.9746732597       -0.5790581557      -13.5845939060
 C        -8.9530958668        2.7685496257       -7.1091285950
 C        -6.6171701008        2.2381999602       -7.8832932958
 C        -5.0644336679       -1.2511535999       -2.8776280239
 C        -3.3663092664       -0.0625789093       -4.4222111485
 C        -4.7134835351       -6.3741357979       -8.2575128720
 C        -3.1077019681       -5.8126491363      -10.2808614845
 C        -4.0340730486        0.0166793589      -12.4095365834
 C        -4.1380350245       -1.9550536713      -14.1557752972
 C         2.0399759009       -3.5639967702      -10.8990098799
 C         2.6933278190       -1.5338416246       -9.5561502275
 C         8.2468366886        0.1288664224      -12.2121796920
 C         8.2453486996        0.2398599085      -14.6598944166
 C        10.8698786533       -5.1248617220      -16.6198457369
 C        10.8842613528       -3.1607248065      -18.2664899979
 C         3.1947162174       -4.7170191268      -17.2936415794
 C         4.5284646106       -4.2604215724      -19.4769497222
 H         4.7818920489       -1.6552260488      -19.5392744417
 H         6.4071025737       -2.1267259469      -18.8672826075
 H         5.5924539767       -0.7742411510      -18.3009775691
 H         6.7366315652       -5.5137914353      -19.1258777124
 H         6.6685992120       -6.7373746314      -17.9539866520
 H         8.9952154470       -5.5715025432      -18.2654623677
 H         8.6941946828       -5.9149225847      -16.6542197709
 H        11.2869992224       -3.8549972398      -13.9209429957
 H         9.5351595438       -4.0922515529      -14.3247140162
 H        10.5005298431       -1.6219607342      -13.0521586767
 H         9.7808392253       -2.8831391775      -12.2192870154
 H         5.4498978630        0.9677083569      -12.0227475588
 H         5.5731878396       -0.5826666652      -11.3311266092
 H         3.3680157614        0.0176520586      -13.2211678617
 H         3.4767392874        0.3565379728      -11.5618589859
 H        -0.2612116792       -2.7398432506      -10.9129895024
 H        -0.0429508845       -2.8521818581      -12.5895009135
 H        -1.3674436457       -0.6322258105      -12.9589367129
 H        -1.5504400990       -0.5733908754      -11.1489779884
 H        -5.9446108269       -3.5540895951      -13.2039458306
 H        -6.9152047152       -3.2337939919      -11.7524436221
 H        -4.2586143119       -4.6991631180      -11.8593039004
 H        -5.7470167883       -5.5977338251      -11.9836622310
 H        -4.4112323242       -4.4438127630       -6.6034006196
 H        -5.4887242954       -3.2485344291       -7.2515653995
 H        -3.9626402285       -1.3785240287       -6.9890926825
 H        -2.7794725136       -2.5859246196       -6.4158266426
 H        -7.4173060325       -0.7121575898       -3.6693672136
 H        -6.9635354418       -1.6994244011       -5.1643658878
 H        -8.3024723979        1.1240818832       -4.9850036860
 H        -9.1156843928       -0.2988948156       -5.4581575463
 H        -9.2748747448        3.2730921843       -9.8170503204
 H       -10.4725961955        1.9207763551       -9.9514919182
 H        -8.2495388146        1.2822277831      -11.6389773384
 H        -9.0308477357        2.8560685032      -12.2219702156
 H       -11.7823266863       -1.0449432963      -10.5325661358
 H       -10.3755248266       -0.9869241936       -9.4505298031
 H       -10.9227686730       -3.5872550646      -10.6021143687
 H       -12.1998702673       -3.0616325472       -9.4769931515
 H       -10.9974776707       -3.6337552099       -4.9735963151
 H       -12.5240583115       -4.5814045457       -4.8234625789
 H       -13.5435227456       -2.3533463327       -4.1875540698
 H       -13.8492284203       -2.5024870132       -5.9915692562
 H       -11.0734158144        1.8803325824       -4.7118904068
 H       -10.5413853423        0.3611196921       -4.2732868543
 H       -11.5686722033        1.3698188729       -1.7345617590
 H       -11.5201922580        2.8167628411       -2.6121916076
 H        -7.4595332556        5.5539925461       -3.6807228530
 H        -6.5717065860        4.2187807058       -2.7853121625
 H        -7.1566812592        5.5767500028       -1.7937055135
 H       -10.7711178175        3.1678787372        0.0856010624
 H       -10.6236719437        4.4166498461       -1.0708535459
 H        -9.5818285455        4.2773833870        0.3684116394
 H        -7.0321097272        2.4627907023       -1.4045906259
 H        -8.0902355750        1.6143054557       -0.1075446916
 H        -7.4190450732        3.2387381480        0.1040161589
 H       -13.3881935007        1.0586888387       -7.3700548204
 H       -11.7253338048        0.9478577541       -6.8927848252
 H       -12.8149616310        2.3112248776       -6.3803403782
 H       -14.8223461786       -0.8380350668       -4.6667026594
 H       -14.9642938090       -0.2846344013       -6.4230332101
 H       -15.0640918975        0.9487276259       -5.0824453910
 H       -12.1996001450       -5.1891378462       -9.3813840857
 H       -12.2044267986       -6.3474031401       -8.1396056653
 H       -10.7874662398       -6.3144523290       -9.1597980594
 H       -10.3964474251       -6.0034066839       -6.2281765860
 H        -9.5091293674       -4.5309285906       -6.0916247863
 H        -9.1575045304       -5.5731667738       -7.3268865129
 H       -11.5386768787        0.0691744225      -14.0885017317
 H       -12.3197695992       -0.6365379042      -12.5943671393
 H       -11.4418639431       -1.7361070508      -13.7334862200
 H        -8.0348071694       -0.7396425776      -12.9165833841
 H        -8.9466352733        0.2669987764      -14.2359874338
 H        -9.0576141192       -1.4291966089      -14.1967808057
 H        -8.9059662706        3.7234559786       -7.6993228963
 H        -8.5602847543        2.9985732881       -6.1095170558
 H        -9.9468504343        2.4100876942       -6.9821065363
 H        -5.8437127291        1.5830709522       -8.3103307934
 H        -6.3339763975        2.6466655120       -6.8519265682
 H        -6.5546292269        3.1891212831       -8.4682426569
 H        -6.0742272288       -1.6984385542       -2.7136970839
 H        -5.1383922903       -0.3204437377       -2.3352235564
 H        -4.2684459533       -1.8751034584       -2.3872162299
 H        -2.6119525061       -0.4576660659       -3.7660917877
 H        -3.6211950844        0.8895800789       -3.9161951740
 H        -3.0296503031        0.1227095513       -5.4360873595
 H        -4.0489513923       -6.3619041647       -7.4007671966
 H        -5.0551714093       -7.3059708333       -8.7387372840
 H        -5.5944505142       -6.1071852736       -7.6196631140
 H        -2.7166011444       -4.9099775946      -10.8168804054
 H        -3.5401971520       -6.5924751385      -10.9757370505
 H        -2.3152826598       -6.2795460393       -9.6821572339
 H        -3.2148778233        0.5581763483      -12.8765198504
 H        -3.9310961259        0.2657330185      -11.3656961530
 H        -4.9976192282        0.3686032545      -12.8142466785
 H        -5.0297882692       -1.5310047999      -14.6632049318
 H        -4.0926956891       -2.9982772967      -14.2716127200
 H        -3.3149119756       -1.5993038073      -14.7054493469
 H         1.7337394062       -4.0259110915      -11.8154383147
 H         1.2704056305       -3.7396940617      -10.1707839629
 H         2.9077074246       -4.0651694092      -10.5530400927
 H         3.6820911786       -1.7847898712       -9.3254824429
 H         2.1308059253       -1.8845213385       -8.7345823925
 H         2.6663132988       -0.4571261092       -9.5353582564
 H         7.4093368134        0.3990456155      -11.6133660143
 H         8.7039820338        1.1361323570      -12.4538870207
 H         8.9112104363       -0.4676904662      -11.5874787364
 H         9.3327813886        0.5279360112      -14.4534644398
 H         7.7223157043        1.1562596106      -14.7022557741
 H         8.0770968015       -0.4511606181      -15.5338326118
 H        10.1990037955       -5.5984181201      -15.8752042896
 H        11.9312214462       -5.1340288275      -16.4345925383
 H        10.7837387881       -5.8636896000      -17.4383610975
 H        11.0151490505       -3.9916132326      -18.9623977679
 H        11.8257972759       -2.6648485868      -18.0750032896
 H        10.1919969849       -2.4027743040      -18.7273862645
 H         2.3541896883       -4.2640027261      -17.6676234999
 H         3.2543465622       -4.5565284493      -16.2417305561
 H         3.1047365514       -5.7701941971      -17.4525264820
 H         5.5239026598       -3.9894047937      -19.8785262911
 H         3.5406436856       -3.8451539725      -19.7756703338
 H         4.4493781125       -5.3417828626      -19.7293346039
 Na        5.3273684629       -2.8534893039      -14.7109382798
 Na       -7.4385420804       -2.0607933649       -9.5435947547
