232

 C         5.3379678544       -1.6776455073      -18.6419383819
 C         4.5709854843       -2.6261274065      -17.6791913237
 O         3.9846823523       -2.1426589080      -16.7127508848
 C         4.4288527922       -4.1219003443      -18.0083467202
 C         5.6863065632       -4.8924130792      -17.2374481583
 O         5.6830688176       -4.9446269242      -16.0165611465
 C         6.7687112732       -5.5488262425      -18.0259922039
 C         8.2245996258       -5.4648854579      -17.4213491870
 C         8.8387758962       -4.0561743707      -17.2664128343
 O         8.1143508594       -3.1415801077      -17.6769399845
 C        10.3641287365       -3.6983577239      -16.9398710195
 C        10.3634602915       -2.7489037698      -15.6308151848
 O        10.6084897688       -1.5639886437      -15.7043131903
 C         9.8724940297       -3.4146134130      -14.2751901856
 C         9.3051038163       -2.3353619035      -13.3007727692
 C         7.9563239629       -1.8755013358      -13.7804135799
 O         7.1565429866       -2.7112803553      -14.1968980145
 C         7.6912887740       -0.3412226043      -13.5714123433
 C         6.1030618162       -0.3125992809      -13.4965336810
 O         5.5286628137       -0.3213931062      -14.5619771106
 C         5.3597573665       -0.2419962402      -12.1596984386
 C         3.8428698271       -0.3640402882      -12.4083871161
 C         3.3811667424       -1.8010640536      -12.0875919682
 O         3.6285523061       -2.8921060899      -12.6794746479
 C         2.3957646412       -1.8774102536      -10.9473609620
 C         1.1154870066       -0.9723645851      -11.2820496557
 O         1.0943125173        0.2148055979      -11.1264794010
 C        -0.1547761205       -1.6720320427      -11.6738079225
 C        -1.3922273948       -0.9836746385      -12.1793222677
 C        -2.7239712790       -1.9361988548      -12.3430219137
 O        -2.5337238214       -3.1247015331      -12.3787861058
 C        -4.1772907762       -1.3432019873      -12.6253610431
 C        -5.1041536347       -2.0394496333      -11.6050151037
 O        -5.2228690558       -1.6830526086      -10.4314975010
 C        -5.9857435221       -3.3087767442      -11.9851695074
 C        -5.2954041578       -4.6407868963      -11.5339535739
 C        -5.4104623621       -4.8737318520      -10.0089512415
 O        -6.3881498173       -4.4532420843       -9.3354680091
 C        -4.2595143470       -5.4670265667       -9.1890697442
 C        -3.6848541070       -4.1307326390       -8.3870695781
 O        -2.6315276371       -3.6535424830       -8.8199593643
 C        -4.3075130974       -3.6869231499       -7.0109240021
 C        -3.8143201843       -2.3427052616       -6.4350157653
 C        -4.3186751738       -2.3473684418       -4.9447570068
 O        -4.6615880052       -3.3052332270       -4.3194039973
 C        -4.3496026687       -0.9058359703       -4.1701859682
 C        -5.5530975143       -0.1958363680       -4.7827883211
 O        -5.3913880121        0.8292521018       -5.4377374880
 C        -6.9979462243       -0.8569731429       -4.6251114287
 C        -7.9850824346       -0.1393280348       -5.5831472222
 C        -7.4528493079        0.1449916855       -7.0209568229
 O        -6.7598234158       -0.7020626159       -7.6038694099
 C        -7.8509845809        1.4550253466       -7.8206983786
 C        -8.4615751857        1.1575461070       -9.3350395747
 O        -8.3082778857        0.0805654929       -9.8051321004
 C        -9.0881107153        2.2653870644      -10.2330172272
 C        -9.2199263597        1.8113267351      -11.7677909909
 C       -10.4518606792        1.0836992234      -12.0758631768
 O       -11.5589043980        1.6357270027      -11.9876700850
 C       -10.2539479962       -0.3657725513      -12.6065596459
 C        -9.8133559302       -1.3434847600      -11.3864529417
 O        -8.7395698763       -2.0241076482      -11.4595803205
 C       -10.8242677591       -1.4256941576      -10.2561681205
 C       -11.1897409523       -2.9486393492       -9.9118861198
 C       -10.2022667800       -3.4888432454       -8.8250761735
 O        -9.1806493059       -2.9915903953       -8.5728873878
 C       -10.7430901438       -4.6600646571       -7.7447206091
 C       -11.8275162911       -3.8438405646       -6.9418790492
 O       -12.8419240969       -3.4510691132       -7.5284789542
 C       -11.6571724750       -3.4388219557       -5.4853768246
 C       -12.5530931012       -2.4171881248       -4.9096844429
 C       -12.5480097412       -1.0291159006       -5.7716848325
 O       -11.7421084349       -0.9008733588       -6.6748551006
 C       -13.5482669634        0.1433029149       -5.3946979244
 C       -13.0078096769        0.6604829053       -4.0100062145
 O       -13.6322292068        0.3132138197       -3.0066804542
 C       -11.5391340476        1.1501801283       -3.9322018209
 C       -11.0746358715        1.8165334126       -2.6560487230
 C        -9.5583823300        1.8165724007       -2.3207140434
 O        -8.8403267575        0.8975093886       -2.8164710672
 C        -8.9824568529        3.0954464861       -1.4924546097
 C        -8.4733481752        4.1874697909       -2.5848553044
 O        -9.1089701900        4.3481209890       -3.5759610144
 C        -7.1086985638        4.8449392439       -2.5264688426
 C       -10.0165608014        3.7563929451       -0.5772160412
 C        -7.8113154667        2.5580498957       -0.6393700920
 C       -13.6786173769        1.2779736021       -6.5009346518
 C       -15.0352580633       -0.3794317883       -5.2069888422
 C       -11.2246081050       -5.9465097019       -8.4950423796
 C        -9.5623264995       -5.0773762936       -6.9780031854
 C       -11.5314891457       -0.9200412791      -13.1415810718
 C        -9.1819734737       -0.4350172238      -13.7472392586
 C        -8.9787475897        2.2856788956       -7.0859804165
 C        -6.6666772192        2.3885724938       -8.0139090457
 C        -4.6931697350       -1.1118546357       -2.5673609720
 C        -3.0918703330       -0.1208985834       -4.4235354587
 C        -4.7826384836       -6.4428873339       -8.1083280423
 C        -3.0233534041       -6.0696243323       -9.9532922001
 C        -4.2948127896        0.2151791862      -12.5074720093
 C        -4.4927146305       -1.7089405502      -14.1209169455
 C         2.0406583336       -3.3385402363      -10.6241258122
 C         3.0114132179       -1.3032516042       -9.6679696938
 C         8.3580375477        0.3113725133      -12.3672868180
 C         8.1992163632        0.2970568551      -14.9149108267
 C        11.0991969099       -5.0880536291      -16.6077459177
 C        10.9661710737       -2.8515214022      -18.0272466012
 C         3.0882531455       -4.6071382525      -17.2741461333
 C         4.5620344507       -4.4535920333      -19.5079124618
 H         4.7871774538       -1.5500379965      -19.5978321701
 H         6.4120953876       -2.0175879933      -18.7870766507
 H         5.4709271097       -0.7160778413      -18.1225343669
 H         6.7849387608       -5.1235508188      -18.9955429283
 H         6.5752692941       -6.5971996776      -18.2645153619
 H         9.0400307271       -5.8674106738      -18.0235014376
 H         8.2725887816       -5.9663800399      -16.4015326360
 H        10.6318050051       -4.0659946439      -13.8534747639
 H         8.9844594191       -4.0280191920      -14.4601028125
 H        10.0903415608       -1.6464783353      -13.0096156709
 H         9.1133295532       -2.7942170424      -12.3336396200
 H         5.5145633119        0.8645810421      -11.9697451902
 H         5.7633010820       -0.9255314216      -11.3838937873
 H         3.8163174209        0.0019258963      -13.5078158453
 H         3.2706232819        0.3471831840      -11.8273788324
 H        -0.4556882085       -2.1157489939      -10.7089991108
 H         0.0896261807       -2.5410185432      -12.2536651450
 H        -1.2268959179       -0.4209962549      -13.1663396793
 H        -1.6926524814       -0.2560737110      -11.4530680716
 H        -6.1572971876       -3.2265857329      -13.0540207432
 H        -6.9855326818       -3.2028712714      -11.5207267873
 H        -4.2252026429       -4.5689329998      -11.8174311757
 H        -5.8405292597       -5.4698700679      -12.0596184906
 H        -4.1604152922       -4.5235102943       -6.3241485200
 H        -5.4172235541       -3.6342060641       -7.0998881853
 H        -4.1924963375       -1.3941005330       -6.9013718237
 H        -2.7475400293       -2.3374245712       -6.4457701833
 H        -7.1694958925       -0.6415401966       -3.5629583055
 H        -6.8900800919       -1.8993885633       -4.8171217529
 H        -8.2606089794        0.8872306497       -5.1603181678
 H        -8.9613312306       -0.6952885986       -5.7764101207
 H        -8.4399147381        3.1486522812      -10.1832011781
 H       -10.0076768853        2.6334397372       -9.8055705055
 H        -8.3297588039        1.2883003564      -12.0214190320
 H        -9.1208838778        2.7268559185      -12.3694938784
 H       -11.7348428537       -0.9521780765      -10.5979945711
 H       -10.5413047857       -0.8761458624       -9.2955805599
 H       -11.0210608700       -3.5660609851      -10.8056337483
 H       -12.2513848145       -3.0094579060       -9.5880526303
 H       -10.6843786439       -2.9987141381       -5.4017164441
 H       -11.5963689768       -4.2479587664       -4.8157411190
 H       -12.2429645022       -2.1672160539       -3.8875743415
 H       -13.4970460524       -2.8457909648       -4.9184649379
 H       -11.5085871464        1.8256441528       -4.8130492059
 H       -10.7892500419        0.4304730999       -4.2948625156
 H       -11.6396606471        1.3797917241       -1.8034124695
 H       -11.4569678478        2.8214128470       -2.6483236900
 H        -7.2303275611        5.7982602595       -3.0095033911
 H        -6.4975610732        4.2644283661       -3.1417684961
 H        -6.6516226368        4.8214363631       -1.5520617212
 H       -10.1881901018        3.1490754055        0.3682837729
 H       -11.0184485969        3.8501909795       -1.0370002133
 H        -9.6190275452        4.8064116785       -0.3264636347
 H        -7.0644701398        1.9601790954       -1.1970961385
 H        -8.2023461895        1.8690100042        0.1097012958
 H        -7.2199132198        3.3897880204       -0.2504847276
 H       -14.1924857199        0.9963654840       -7.3660099281
 H       -12.7301995598        1.7476687399       -6.7573436789
 H       -14.2962810184        2.0920909540       -5.9668484298
 H       -15.1987902398       -0.8569794937       -4.2241164207
 H       -15.1728656648       -1.0456606656       -6.0064323910
 H       -15.7224934911        0.4342054259       -5.3341375659
 H       -12.1847774897       -5.7299428397       -8.8285575863
 H       -11.3159838927       -6.8162907005       -7.8392838723
 H       -10.6096017393       -6.3200365442       -9.3100966475
 H        -9.9286726101       -5.9212820837       -6.3125849163
 H        -9.1871580321       -4.2687543476       -6.3108056050
 H        -8.7405081402       -5.4948602156       -7.6406983669
 H       -11.7433568398       -0.6907030450      -14.1832686803
 H       -12.2783325405       -0.5593279100      -12.5184994016
 H       -11.4930394589       -1.9683754623      -13.0283107266
 H        -8.2610131420        0.1110099658      -13.5119123099
 H        -9.6250593300       -0.0582555007      -14.6574575788
 H        -8.9887610593       -1.4523776084      -13.9539569175
 H        -9.3244315474        3.1460574634       -7.7334533677
 H        -8.6106760968        2.8455243798       -6.2423263279
 H        -9.8322509289        1.6574812118       -6.6449439935
 H        -5.7536121806        1.8956156239       -8.2046622567
 H        -6.5413438708        3.0650829657       -7.1644544112
 H        -6.7687736667        3.0263576734       -8.8398200286
 H        -5.2593756797       -2.0350436075       -2.2696033170
 H        -5.0345955963       -0.2167345592       -2.0250372562
 H        -3.7556837669       -1.5179136489       -2.1194156736
 H        -2.2113684317       -0.7827240967       -4.5770670733
 H        -2.9212896654        0.6171435019       -3.6325892846
 H        -3.1558942597        0.4140108300       -5.3902642788
 H        -4.0427942252       -6.7866288693       -7.2974936631
 H        -5.2611743369       -7.3142400611       -8.5228051157
 H        -5.6733560111       -5.9876778654       -7.6358293407
 H        -2.5371679893       -5.3365300875      -10.5447054812
 H        -3.3433225526       -6.9104503356      -10.4573232326
 H        -2.3636129665       -6.4484937129       -9.2004211194
 H        -3.6500604796        0.7137734007      -13.2378927750
 H        -4.1323734152        0.6415221726      -11.5661359362
 H        -5.3709548024        0.4869074731      -12.7381164489
 H        -5.5361653285       -1.5727552048      -14.4120681203
 H        -4.3494501199       -2.8164161007      -14.2324315752
 H        -3.8810814748       -1.1847963985      -14.8674443440
 H         1.7578560016       -3.8738887507      -11.5623134944
 H         1.2292961167       -3.4048326256       -9.8717465217
 H         2.9156272868       -3.8881891222      -10.2801180890
 H         3.9150367232       -1.8759849924       -9.3224314928
 H         2.2460814160       -1.3483940868       -8.8300737487
 H         3.3231052055       -0.2370399365       -9.6570024773
 H         7.6899643699        1.0616425041      -11.9106959429
 H         9.3028962516        0.8530148440      -12.6045036290
 H         8.6171273466       -0.3112823194      -11.5355372864
 H         9.1714330253       -0.0561957106      -15.2308723690
 H         8.3339539576        1.3346496899      -14.7852853653
 H         7.3892176051       -0.0088367663      -15.6096268854
 H        10.4714525200       -5.7954513643      -16.0736764984
 H        12.0470862952       -4.9494996739      -16.1254673161
 H        11.4076741291       -5.7135174971      -17.4946430193
 H        10.9926374852       -3.3121596733      -18.9598752700
 H        12.0219568133       -2.9045464399      -17.7230395645
 H        10.5536693341       -1.7823161331      -18.0875143145
 H         2.1892275749       -4.1461740976      -17.7509872836
 H         3.0729920309       -4.2224234197      -16.2004558225
 H         2.9129462033       -5.7441203305      -17.1850121624
 H         5.3263249023       -3.9545596371      -20.0720650564
 H         3.5670477718       -4.1892807210      -19.8720958589
 H         4.6440550722       -5.5157897480      -19.6840705529
 Na        4.7632543226       -2.9691300826      -14.6086166448
 Na       -7.2274409114       -2.0885779098       -9.3279061389
