232

 C         5.0444982387       -1.5922886062      -18.8168136900
 C         4.4155207744       -2.5781290033      -17.8594723302
 O         4.0306764734       -2.1183869971      -16.7874788913
 C         4.4537320927       -4.1458521815      -18.0388006761
 C         5.6712310928       -4.6313941702      -17.1878633408
 O         5.6395595950       -4.4016738935      -15.9980647396
 C         6.7039976150       -5.5152967510      -17.8021367221
 C         8.0300956171       -5.3438981288      -17.1203471798
 C         8.8691144501       -4.0312439799      -17.4561329173
 O         8.3032794388       -3.0919324725      -18.0582507722
 C        10.3522651698       -3.8475720972      -16.9690833165
 C        10.1186628393       -3.0927263840      -15.6584490441
 O        10.3576756364       -1.8690091836      -15.5831941174
 C         9.4527055025       -3.6792902763      -14.3247139221
 C         9.0670848386       -2.4586383434      -13.4270866413
 C         7.7550903074       -1.8138270696      -13.8744279990
 O         6.8858242469       -2.5688961933      -14.2901463150
 C         7.5719267058       -0.2605159457      -13.7887464891
 C         5.9524067558       -0.2311995997      -13.7327516511
 O         5.3521925242       -0.3176839278      -14.8036575126
 C         5.1130232262       -0.3235805264      -12.3931629279
 C         3.5354347477       -0.3113813000      -12.4758962095
 C         3.0334600152       -1.6630618028      -12.0446964150
 O         3.3264284525       -2.7060281908      -12.7185475849
 C         2.2129278757       -1.7262330534      -10.7151369643
 C         0.8077391416       -0.9867414158      -11.0550202769
 O         0.7042019989        0.2151536178      -10.8510069232
 C        -0.3148406759       -1.9295832032      -11.4617324854
 C        -1.5184070655       -1.0025607871      -11.8281456769
 C        -2.6295334894       -1.7405072132      -12.5256390347
 O        -2.3911173817       -2.9191669553      -12.7924919383
 C        -4.0698289101       -1.1553392074      -12.6374024600
 C        -5.0284552284       -2.0046786919      -11.6526750237
 O        -5.0866595911       -1.6135761960      -10.5043391672
 C        -5.6551870300       -3.3354263435      -12.0656096284
 C        -4.8115428033       -4.3892670549      -11.2681388365
 C        -5.1769587950       -4.6991316561       -9.8127877467
 O        -6.1870331078       -4.3060532963       -9.2321825522
 C        -4.2231243214       -5.4996584171       -9.0091965333
 C        -3.5993112026       -4.3212544599       -8.0684435152
 O        -2.4670294170       -3.9006827726       -8.3340030681
 C        -4.3566015568       -3.9557402437       -6.8246443062
 C        -3.9107786652       -2.5854419131       -6.3700657720
 C        -4.1863003511       -2.4105105358       -4.7917167546
 O        -4.4445770718       -3.3924596274       -4.1539183116
 C        -4.1366865440       -1.0568732119       -4.2146367033
 C        -5.2889452968       -0.1567465590       -4.7120808428
 O        -5.2179508449        1.0174707676       -4.9704048206
 C        -6.7100098010       -0.9349304649       -4.9175365510
 C        -7.7981361315       -0.0808452849       -5.6826269669
 C        -7.3215412911        0.1470658686       -7.1586087856
 O        -6.5402121453       -0.6494707219       -7.6035122221
 C        -7.8482840323        1.4035313812       -7.9144730545
 C        -8.2720772733        1.0708376809       -9.3043594742
 O        -8.0551066431        0.0028891815       -9.8429824066
 C        -8.9396373697        2.1620282437      -10.0797551114
 C        -9.1185388340        1.8363224036      -11.5585534563
 C       -10.4225264630        1.0566046230      -11.8663938143
 O       -11.5414141547        1.5464093613      -11.6226469944
 C       -10.3068669783       -0.4214078187      -12.6617955831
 C        -9.7686222064       -1.4109855765      -11.4940279003
 O        -8.7661521068       -2.0159704002      -11.6412675724
 C       -10.7817309957       -1.5717820901      -10.3521546032
 C       -10.9703095794       -3.0927879655       -9.9889401896
 C        -9.9852620197       -3.5157344385       -8.7375109368
 O        -8.9013865251       -2.9902264118       -8.6324899387
 C       -10.5129881308       -4.5748289225       -7.8365458579
 C       -11.6437076722       -3.7363294182       -6.9617751462
 O       -12.7763128191       -3.7477012540       -7.4130850013
 C       -11.1614004347       -2.9341228305       -5.7852747361
 C       -12.3240518080       -2.2289747151       -5.1358202691
 C       -12.7044511096       -0.9642739451       -5.8919562374
 O       -12.2180503692       -0.6954184815       -6.9603756556
 C       -13.6723895700       -0.0123364009       -5.1400442296
 C       -13.0144670595        0.5598141478       -3.8636729861
 O       -13.5778480640        0.3453657992       -2.7878961312
 C       -11.6536429121        1.1654619861       -3.9406560795
 C       -11.2675121011        2.0734903384       -2.8026946856
 C        -9.7628812002        1.8096863772       -2.5583445569
 O        -9.1515914334        0.8578046133       -3.0202120945
 C        -9.0110780877        2.9065163398       -1.6646805308
 C        -8.3734034758        3.9251250733       -2.7518113814
 O        -8.8571565844        4.1452272586       -3.8553740982
 C        -7.1488605719        4.6562471630       -2.2067298903
 C        -9.8738408793        3.9765257870       -0.7902567181
 C        -7.9359816304        2.1694299775       -0.9278343289
 C       -14.0915011094        1.1951643940       -6.0468006293
 C       -14.9599380178       -0.8821738045       -4.7794868753
 C       -11.4095130071       -5.6432438997       -8.4414429054
 C        -9.3639692036       -5.1170785899       -6.9499235876
 C       -11.8058542348       -0.6927073670      -13.1421285024
 C        -9.4312474011       -0.6114981476      -13.8809195040
 C        -9.0936352039        2.0015460925       -7.2062546784
 C        -6.5590155610        2.3547944721       -7.9373556446
 C        -4.1419354427       -1.1500176121       -2.6374473239
 C        -2.8443674877       -0.3262874696       -4.6311896007
 C        -4.9751446051       -6.4009691157       -8.0488426569
 C        -3.1467062601       -6.2790404757       -9.7610741080
 C        -4.2379987952        0.2876087321      -12.3268336453
 C        -4.6372129273       -1.3424312783      -14.1151957412
 C         2.0272583858       -3.1479880282      -10.2498488769
 C         2.9219584279       -1.0045902949       -9.5111680489
 C         8.2755374860        0.3728430753      -12.5745482269
 C         8.0222871931        0.5030454417      -15.1331814289
 C        11.3238222947       -5.0977411435      -16.6856095374
 C        10.9857179484       -2.9163377360      -18.0070056864
 C         3.1721843131       -4.8874783186      -17.3140256846
 C         4.5998811492       -4.5053638123      -19.5297381348
 H         4.4807189126       -1.5308967405      -19.7747030610
 H         6.0879261805       -1.8333855824      -19.0225395338
 H         4.9899726961       -0.7054963782      -18.2805958631
 H         6.8827510105       -5.1995022247      -18.8125668997
 H         6.3935771612       -6.5983228744      -17.9190603657
 H         8.6653422977       -6.2227840333      -17.2508526210
 H         7.8231623366       -5.1185735405      -16.0539117697
 H        10.0416880190       -4.3961681596      -13.7329966092
 H         8.4919776203       -4.1940545745      -14.5256674913
 H         9.9929503525       -1.8320729407      -13.3576847410
 H         9.0346238177       -2.8353146719      -12.4133518971
 H         5.3559374311        0.6485246926      -12.0328712862
 H         5.4175276552       -1.1786294532      -11.8018499027
 H         3.2476802988       -0.1472235529      -13.5243167762
 H         3.1490634041        0.5767199166      -11.9409681737
 H        -0.6002801760       -2.5388379124      -10.5963630868
 H         0.0262707488       -2.5844911859      -12.2775084390
 H        -1.2499812052       -0.1099305469      -12.4430300854
 H        -1.9533287341       -0.4692135890      -10.9776646229
 H        -5.6742502560       -3.3676692928      -13.1388199235
 H        -6.6785650275       -3.2958334840      -11.7413359255
 H        -3.8152546416       -4.0594918542      -11.1701709046
 H        -4.8985885522       -5.2853986294      -11.8015180997
 H        -4.1560359801       -4.6218060361       -5.9967257265
 H        -5.4619962227       -3.9871225935       -6.9852199511
 H        -4.5109042898       -1.7732533778       -6.9063170644
 H        -2.8642250285       -2.3643832477       -6.5272006852
 H        -7.0607585134       -1.1641622174       -3.8843743252
 H        -6.4918608630       -1.8329770022       -5.4718496046
 H        -7.8050873348        0.9403106489       -5.2521472450
 H        -8.7328010986       -0.5056797989       -5.5754655045
 H        -8.3484100584        3.0100998944       -9.8656614264
 H        -9.9121980655        2.5152056048       -9.6160015794
 H        -8.2067681250        1.3032285812      -11.9689001285
 H        -8.9786658994        2.7089117105      -12.1967423017
 H       -11.7334492648       -1.2782391896      -10.7611446544
 H       -10.6453238280       -0.9403673613       -9.5055200727
 H       -10.8016975840       -3.6945311157      -10.8655439613
 H       -12.0088556489       -3.1243358480       -9.7203113299
 H       -10.3981010132       -2.1749844251       -5.9645635712
 H       -10.6654189083       -3.5872359322       -5.0141114115
 H       -12.0911712103       -1.9335245392       -4.0850955871
 H       -13.1888995986       -2.9299484398       -5.1714533602
 H       -11.4102226452        1.5024523321       -4.9691523831
 H       -11.0264316224        0.3045133098       -3.9008946590
 H       -11.7887380733        1.8054917523       -1.8320155487
 H       -11.5961702563        3.0816650704       -3.0155173799
 H        -6.7876520422        5.3997594028       -2.9772403203
 H        -6.3596249552        3.9647182823       -1.9562868331
 H        -7.4425051425        5.1711697288       -1.2598067088
 H       -10.7725543220        3.5445010965       -0.4635267889
 H       -10.0766941693        4.8939749842       -1.2260236516
 H        -9.2504543133        4.2120143937        0.0113819133
 H        -7.5965701927        1.3436571869       -1.4955015078
 H        -8.3024313277        1.6057301399       -0.0804003495
 H        -7.0417904254        2.7915954234       -0.6631979134
 H       -14.3249169893        0.8129515483       -7.0307759069
 H       -13.3488318978        1.9369175750       -6.1166923407
 H       -14.9986180840        1.6869630893       -5.5820324707
 H       -14.6556501277       -1.6155603799       -4.0051854296
 H       -15.2397155605       -1.3713823388       -5.7041135198
 H       -15.7639354072       -0.2969441985       -4.4081437167
 H       -12.1235989266       -5.1840815288       -9.1168671379
 H       -11.8940616753       -6.3659266033       -7.7638193484
 H       -10.7684741131       -6.2451765628       -9.1492119249
 H        -9.6724361915       -5.0762066595       -5.9222512997
 H        -8.4925474368       -4.5195196274       -7.0514472415
 H        -9.2119447044       -6.1050215528       -7.2865075070
 H       -12.0005946725        0.1347350977      -13.8727976111
 H       -12.5026840697       -0.6273531427      -12.3255653480
 H       -11.9223126181       -1.6666599525      -13.7311245262
 H        -8.3971008783       -0.4993099541      -13.6497908664
 H        -9.6344564878        0.1827165279      -14.6765733918
 H        -9.6862609168       -1.6370235309      -14.2816866218
 H        -9.3280000302        2.9834412242       -7.5470992064
 H        -9.0992114173        2.0994021575       -6.1816448098
 H        -9.9868535292        1.3477302203       -7.4482767671
 H        -5.9598445434        2.3273449173       -8.9058027792
 H        -5.8222186955        2.0549982726       -7.1298064041
 H        -6.8248897180        3.4455546001       -7.8108338740
 H        -4.9541230983       -1.8953376409       -2.3176180854
 H        -4.3686678446       -0.2311446691       -2.2486766106
 H        -3.3076452295       -1.6061599999       -2.2038132794
 H        -1.9932645218       -0.7858939887       -4.1117187270
 H        -2.9188792914        0.7160556309       -4.5507794299
 H        -2.5688830462       -0.4720197052       -5.6688055930
 H        -4.3289929981       -6.8366075325       -7.2383251239
 H        -5.3878201761       -7.2668752025       -8.4069509110
 H        -5.7753981930       -5.8548708003       -7.6744058454
 H        -2.2029646733       -5.6608892067       -9.6956449140
 H        -3.4207059593       -6.7152445215      -10.7181256041
 H        -2.9736023845       -7.1445313261       -9.0165393681
 H        -3.5290265263        0.9317351868      -12.8953148350
 H        -4.2480282189        0.4951574048      -11.3021697893
 H        -5.2386460160        0.7236607032      -12.6305051082
 H        -5.6763177120       -1.3743513434      -14.1085555301
 H        -4.3974006516       -2.3803491206      -14.4766178581
 H        -4.3000484634       -0.5961045723      -14.8382671553
 H         1.6672739924       -3.7569923538      -11.0672809530
 H         1.4179215601       -3.2265299665       -9.3759126578
 H         2.9912702871       -3.5365776286       -9.9925863494
 H         3.8426182471       -1.5213821025       -9.3823750510
 H         2.3384167090       -1.1846427411       -8.6405266093
 H         3.1367209355       -0.0021607958       -9.4333928592
 H         8.7552084630        1.3526228377      -12.8040872427
 H         8.9682622859       -0.1998473606      -12.0251530350
 H         7.6566741507        0.7381950871      -11.7666433403
 H         9.0576770780        0.6773724475      -15.2026977189
 H         7.5047327193        1.4930265747      -15.0703255386
 H         7.6080508285       -0.1237712509      -15.9572723111
 H        11.0880375489       -5.5418737474      -15.7484260318
 H        12.3521359461       -4.7746063471      -16.4961807242
 H        11.4137064730       -5.9613619300      -17.4036690197
 H        11.1330871239       -3.5047830778      -18.8287325113
 H        12.0338923651       -2.7138781861      -17.7512752508
 H        10.2919681378       -2.0646432116      -18.2815016192
 H         2.2533685384       -4.3827416618      -17.3922776791
 H         3.2964749464       -4.9898338896      -16.2899437856
 H         3.0506300273       -5.8614894888      -17.6758394723
 H         5.5721165241       -4.3653512787      -20.0019128523
 H         3.9333030883       -3.8823828701      -20.1545375802
 H         4.2945025109       -5.5645708180      -19.6286603499
 Na        4.7646049409       -2.7695505418      -14.7043265766
 Na       -7.0908388211       -2.0261348212       -9.5656216672
