232

 C         4.5754218313       -1.6178329600      -19.2082518515
 C         4.1887962578       -2.5685644269      -18.0145137456
 O         3.8769324776       -1.9932179392      -16.9692816964
 C         4.2911431070       -4.1152446753      -18.1655966108
 C         5.6019899731       -4.4484568999      -17.1914155830
 O         5.6182783709       -4.1017645630      -16.0593260481
 C         6.6029854840       -5.5769912224      -17.7813863525
 C         8.0056508841       -5.4475042941      -17.1057717062
 C         8.7504606501       -4.1715146415      -17.5302413613
 O         8.3550811914       -3.4518997679      -18.4441192230
 C        10.1423011558       -3.8663266858      -16.9711833458
 C        10.0206041487       -2.8100982789      -15.7379551476
 O        10.3799314130       -1.6842335113      -15.9087573041
 C         9.7085321159       -3.2804100748      -14.3221292436
 C         8.9339526323       -2.4108365764      -13.4088348253
 C         7.4893184286       -2.0151538878      -13.7000982709
 O         6.6209754816       -2.8202621499      -13.7737657083
 C         7.1949098325       -0.3731844012      -13.7268634358
 C         5.5764405425       -0.1631028439      -13.7243778032
 O         4.9269983063       -0.1814103703      -14.7513284059
 C         4.8837853124        0.0422551172      -12.4081051801
 C         3.3497331761       -0.0067032841      -12.5029780366
 C         2.8931445133       -1.4705376548      -12.0671164468
 O         3.0791764815       -2.4250210616      -12.9004732699
 C         2.2681251350       -1.5845018848      -10.6260907007
 C         0.7270940067       -1.0135773167      -10.8765113113
 O         0.4866139633        0.1249216138      -10.8688912358
 C        -0.2785756719       -2.0926710738      -11.3050708653
 C        -1.7076767261       -1.4137346275      -11.3492399709
 C        -2.5145871114       -1.7031171603      -12.6219554261
 O        -2.1399897190       -2.4281377570      -13.5004603153
 C        -3.9236922076       -0.9484818458      -12.7513512564
 C        -4.8203032346       -1.8765473413      -11.7820964490
 O        -5.2747341369       -1.3825064762      -10.7345330302
 C        -5.0648827407       -3.2949666717      -12.1087550904
 C        -4.2941338573       -4.2141964103      -11.1606707634
 C        -4.8600622620       -4.5368648472       -9.7868253852
 O        -5.9170558995       -3.9947688653       -9.3676683582
 C        -4.2150365644       -5.6828856666       -8.9122425827
 C        -3.4503865275       -4.8199741435       -7.7387742783
 O        -2.2919986510       -4.4913895208       -7.9333002619
 C        -4.2637614868       -4.1163649796       -6.6255317322
 C        -3.4841472537       -2.9248491313       -6.1557759357
 C        -3.9135679541       -2.5043854003       -4.6463087831
 O        -4.1448513492       -3.3966588699       -3.8971104222
 C        -3.7833020764       -0.9875613968       -4.1206444197
 C        -5.0237172969       -0.1189160488       -4.5455142778
 O        -4.9787372310        1.1294530790       -4.6368985795
 C        -6.3622000176       -0.8351259671       -4.9000119790
 C        -7.3868256702        0.1227146590       -5.5608615215
 C        -7.3469451265        0.1737536084       -7.1045883608
 O        -6.8537224312       -0.7407862290       -7.7608437200
 C        -7.8834026183        1.4506941324       -7.8524712574
 C        -8.0775199754        1.2465009446       -9.3393720130
 O        -7.6259992868        0.2732489042       -9.9814665661
 C        -8.7058749225        2.3748157932      -10.2050519844
 C        -9.1129286014        1.8438119920      -11.5981289495
 C       -10.3277234207        0.9387817709      -11.5559916312
 O       -11.3615706085        1.1740457251      -10.9184487831
 C       -10.3035258299       -0.3055464889      -12.6394294328
 C        -9.6700241710       -1.5049076473      -11.7958798067
 O        -8.5896308485       -1.9456149215      -11.9935659513
 C       -10.6063872240       -1.8664215440      -10.4788742373
 C       -10.6149034723       -3.3306988872      -10.0523990338
 C        -9.8535021331       -3.6557300100       -8.7386909338
 O        -8.8373580622       -3.1094818665       -8.4159976747
 C       -10.5328685196       -4.6524165193       -7.7169924564
 C       -11.5883879496       -3.9109172735       -6.8850207390
 O       -12.7644072278       -4.2107800957       -6.8056573346
 C       -11.0189556863       -2.7158663368       -6.1555396747
 C       -12.0375124610       -1.9756004896       -5.1195697710
 C       -12.8274663595       -0.8425439027       -5.7688142651
 O       -12.5488646520       -0.3418740031       -6.8456191282
 C       -14.0643681479       -0.1311618789       -4.8505677285
 C       -13.2273011050        0.5973573425       -3.7490425222
 O       -13.5192683496        0.5877041848       -2.5641018951
 C       -12.0862668589        1.4503743860       -4.2878195099
 C       -11.3514737767        2.2768313070       -3.1634534983
 C        -9.8282696051        1.8555817624       -2.8403878720
 O        -9.3335825888        0.7975441018       -3.2973630749
 C        -9.0054401010        2.7744294568       -1.9169983761
 C        -8.1643441991        3.6493990482       -2.8703502397
 O        -8.2250314070        3.4547340580       -4.0405224041
 C        -7.2237309208        4.6869588233       -2.1803489204
 C        -9.8595236600        3.6481283131       -0.9495533993
 C        -7.9555149317        1.9533325924       -1.0131896169
 C       -14.8236548943        0.8484774790       -5.7685908301
 C       -14.9564917024       -1.2255296568       -4.3076129959
 C       -11.2600341555       -5.8402010613       -8.5127062391
 C        -9.3887699865       -5.2940749896       -6.9121073063
 C       -11.7441668573       -0.6308711437      -13.1000765717
 C        -9.4888918452       -0.1109436495      -13.9969698056
 C        -9.1771308159        1.9623948106       -7.2085857807
 C        -6.6234875285        2.3986386990       -7.6683082373
 C        -3.8408908767       -1.0833845499       -2.5214488803
 C        -2.5390398662       -0.3424957854       -4.6833263737
 C        -5.4003779249       -6.4993313106       -8.3208709781
 C        -3.0695328992       -6.5197481196       -9.6015871421
 C        -4.0012455450        0.5573813823      -12.3739231585
 C        -4.5436301429       -1.0652709655      -14.1390395870
 C         2.2255168927       -3.0647517835      -10.0969261992
 C         3.0722914368       -0.7804794124       -9.6296116654
 C         7.9097474082        0.4117918492      -12.6455868937
 C         7.6747020069        0.1869939294      -15.1461304180
 C        10.9764345676       -4.9840862948      -16.2545589091
 C        10.9506882538       -3.3328954810      -18.0918865699
 C         3.1014934846       -4.7880758535      -17.5257430799
 C         4.6719721040       -4.6188905600      -19.5089622111
 H         3.9468031804       -1.8964637856      -20.0235659449
 H         5.5634166645       -1.6538260838      -19.6344230273
 H         4.2121542497       -0.6131759416      -18.8919741449
 H         6.7583412015       -5.3768820492      -18.8391853504
 H         6.2491631611       -6.6759683319      -17.6363973416
 H         8.5924363882       -6.2931935776      -17.4589704269
 H         7.7751936047       -5.4271633990      -16.0386876444
 H        10.7276579789       -3.3468994204      -13.9286358195
 H         9.3254401733       -4.3145792466      -14.2178812610
 H         9.6249419248       -1.5557161976      -13.2383107336
 H         8.8980359389       -2.9643776741      -12.4759991021
 H         5.1904425878        1.0495289240      -12.2209102934
 H         5.3798797387       -0.6062957022      -11.6911610838
 H         3.1012826095        0.0925108501      -13.5288881990
 H         3.0222681799        0.8365835687      -11.9974174339
 H        -0.3511864701       -2.8141332005      -10.4781701381
 H         0.0729527760       -2.4946892958      -12.2880256889
 H        -1.7408520600       -0.3359982878      -11.1734376788
 H        -2.3702575038       -1.6678836756      -10.5329906225
 H        -4.8285483007       -3.5116415583      -13.1544727399
 H        -6.1688942072       -3.3707200236      -12.0590110589
 H        -3.2328450841       -3.9306099627      -11.0612289648
 H        -4.3942418337       -5.1253331570      -11.7650408610
 H        -4.4433563886       -4.8671561885       -5.8734069669
 H        -5.2586057251       -3.8408835506       -7.0599246790
 H        -3.6060701410       -2.1459398947       -6.9576872835
 H        -2.4374250343       -3.0968494651       -6.1251469550
 H        -6.8135500016       -1.2062071038       -3.9317127276
 H        -6.0447773407       -1.7198822985       -5.4879150636
 H        -7.1010736126        1.1334131699       -5.2093805482
 H        -8.3240764674       -0.0816393529       -5.1927756342
 H        -8.0281270097        3.2165596398      -10.2891189381
 H        -9.5599005928        2.8883963536       -9.6240379588
 H        -8.2292468692        1.3052588312      -12.0479057969
 H        -9.1247001407        2.6341238955      -12.3674009668
 H       -11.6277947283       -1.6066654054      -10.7042379403
 H       -10.3779329215       -1.1689500218       -9.6622938030
 H       -10.2371573869       -3.9592408764      -10.8937961018
 H       -11.6529640980       -3.6301142681       -9.8378886684
 H       -10.6589554311       -1.9283202998       -6.9105848704
 H       -10.0881301218       -2.8825528426       -5.5284123168
 H       -11.5132050062       -1.5296728595       -4.2073738275
 H       -12.7309837751       -2.7214970695       -4.6350728225
 H       -12.6312220381        2.0615050495       -5.0887996976
 H       -11.3184480524        0.8319171091       -4.7863949539
 H       -12.0063859560        2.0957427655       -2.2757016402
 H       -11.3094324482        3.3257238796       -3.3768695244
 H        -7.0187772039        5.6508929326       -2.7240134198
 H        -6.3037851493        4.1303143632       -2.0058467562
 H        -7.6600547617        5.0775465087       -1.2057421153
 H       -10.0532373861        3.1210465349        0.0000504039
 H       -10.7636301503        3.9567741744       -1.4643358967
 H        -9.4160982758        4.6564519534       -0.7404113757
 H        -7.0900505603        1.6254849923       -1.5476390941
 H        -8.3450857158        1.0294640165       -0.5842349482
 H        -7.6495532693        2.4908704682       -0.0991087088
 H       -15.4462740220        0.2907536897       -6.4164485678
 H       -14.0632230249        1.3287424961       -6.3713339191
 H       -15.4095097539        1.6812837239       -5.2000835391
 H       -14.2746907781       -1.9929622398       -3.7784496422
 H       -15.5665441721       -1.6836353446       -5.1197155895
 H       -15.6561111411       -0.7870988177       -3.5220214686
 H       -12.2878611124       -5.7033764168       -8.7614415426
 H       -11.2513641603       -6.6352992766       -7.7341217655
 H       -10.8109935634       -6.0921737760       -9.5110467184
 H        -9.7584957197       -6.2792791792       -6.8065000727
 H        -9.3699651589       -4.8428533941       -5.9727181495
 H        -8.4268709390       -5.2920575652       -7.4031230610
 H       -12.0799774010        0.0856146649      -13.9072287994
 H       -12.3928217055       -0.4675751007      -12.2649945884
 H       -11.8256946791       -1.6649549784      -13.4500207312
 H        -8.3640288367       -0.0959959398      -13.9762719692
 H        -9.8220390793        0.7410000650      -14.5621085053
 H        -9.6818035533       -1.0015541429      -14.5176739192
 H        -9.9553045721        2.4238097462       -7.7832751506
 H        -8.9987808815        2.5137063798       -6.3444856635
 H        -9.7763062860        1.1119308490       -6.8238416419
 H        -5.6746676987        1.8220571151       -7.5946779651
 H        -6.7295258265        2.7455622621       -6.5857616107
 H        -6.5801345049        3.2436813758       -8.3588610665
 H        -4.7396288814       -1.1572435507       -2.1083588717
 H        -3.4049304464       -0.1762195926       -2.1298534039
 H        -3.1105215069       -1.8389392020       -2.1621623541
 H        -1.6756562632       -0.9841604534       -4.3398210605
 H        -2.3233289782        0.6763908455       -4.3651220529
 H        -2.4729023749       -0.2863000794       -5.7821911875
 H        -5.0128952757       -7.2114483624       -7.5555212727
 H        -5.8791107033       -7.2266579795       -8.9828794303
 H        -6.1420959869       -5.7667267280       -7.9134867958
 H        -2.5141777874       -5.8722115964      -10.3007309803
 H        -3.4816861657       -7.3698159121      -10.0893266118
 H        -2.4117548129       -6.7736293977       -8.7752359169
 H        -3.2126587752        1.1254640203      -12.8748827162
 H        -4.0085475160        0.8938693000      -11.3961998425
 H        -4.8992857986        0.9968371174      -12.8867323648
 H        -5.5527050636       -0.7212228032      -14.1041832352
 H        -4.5151191210       -2.0964161831      -14.4330617735
 H        -4.0408094000       -0.5354763438      -14.9026915829
 H         1.9912352087       -3.7385244162      -10.9076202087
 H         1.4717637908       -3.1643956065       -9.3386620160
 H         3.1343187420       -3.3211343357       -9.6262175596
 H         4.1195685921       -1.0496126077       -9.6537402690
 H         2.7064298687       -0.9108675192       -8.6136124828
 H         3.0839596426        0.2762517225       -9.7962509637
 H         8.9583210707        0.0639197082      -12.5210776244
 H         7.5727689295        0.4548875424      -11.6019233197
 H         8.0441159710        1.4565653862      -12.8693039057
 H         8.6544797019       -0.1919530729      -15.5008968401
 H         7.6188939086        1.2602658652      -15.0958217990
 H         6.8342062016       -0.0960123753      -15.8520138563
 H        10.5208811256       -5.5076052583      -15.4494088233
 H        11.7667639531       -4.6141562830      -15.6352559836
 H        11.5341637457       -5.6870052280      -16.9436306615
 H        10.8780069030       -4.0707400935      -18.8533143844
 H        11.9976239158       -3.2958698353      -17.7986681469
 H        10.5170157998       -2.3838712214      -18.5261706814
 H         2.2292300216       -4.7977178214      -18.0728694764
 H         2.8081862801       -4.1987360820      -16.6588451013
 H         3.2275051384       -5.8117729576      -17.1543959864
 H         5.6821995355       -4.2434919809      -19.7794209347
 H         4.1372739713       -4.2400741687      -20.4283548401
 H         4.5747141655       -5.7291736439      -19.5810387590
 Na        4.2569173488       -2.4199804006      -14.9870388811
 Na       -7.4237825860       -2.2080121786       -9.8069930535
