232

 C         4.0235787151       -1.9023467041      -19.5873389121
 C         4.0655059622       -2.6425863706      -18.2392811428
 O         4.2595295424       -1.9421269139      -17.2631902098
 C         4.1838947762       -4.1967732743      -18.2258276213
 C         5.4322966351       -4.7310582822      -17.5311335616
 O         5.7292553773       -4.2394636963      -16.4762632426
 C         6.2503266348       -5.9063933666      -18.1434446705
 C         7.7655020638       -5.7869682780      -17.6146613843
 C         8.2976016009       -4.4395677037      -17.7101153142
 O         7.7743487508       -3.6373430698      -18.4522271083
 C         9.5864628870       -4.0187402827      -16.7223415037
 C         9.4578625045       -2.7093593165      -15.5986281677
 O         9.6195235841       -1.5898523462      -15.8826831425
 C         8.8973383792       -3.1249236191      -14.1319242227
 C         8.4589709258       -1.8337028866      -13.3056251484
 C         7.0768288752       -1.3976496113      -13.5662669582
 O         6.1247452343       -2.0768474044      -13.4113269688
 C         6.8380178586        0.2120372619      -13.8173448274
 C         5.3131902020        0.3636327744      -13.8222631458
 O         4.6415893223        0.0323089275      -14.7956934059
 C         4.4862922280        0.8765994150      -12.6117457933
 C         3.1228385147        0.3256006168      -12.4959629850
 C         2.9835270899       -1.2130138319      -12.2823275175
 O         3.3666319364       -2.1426547597      -13.0384778299
 C         2.3404244960       -1.5791395455      -10.9081651049
 C         0.8519932055       -0.9826171784      -10.8361298651
 O         0.6868634732        0.1441846198      -10.5821323635
 C        -0.3097292311       -2.0317336114      -11.0177079128
 C        -1.6265940274       -1.3155052408      -11.2734817152
 C        -2.1508728065       -1.2416668041      -12.6884408380
 O        -1.3631357490       -1.5090354496      -13.5363315408
 C        -3.6025180927       -0.7952992609      -12.8791997658
 C        -4.5174326561       -1.6966052782      -11.8623957903
 O        -5.3166708110       -1.2126643698      -11.0801628032
 C        -4.5331216719       -3.2507291441      -12.0267133653
 C        -3.9896042751       -4.2182740077      -10.9501221460
 C        -4.7785263837       -4.5092446355       -9.6942355507
 O        -5.5785263233       -3.6713013861       -9.2490493393
 C        -4.3413301523       -5.7087559187       -8.7291554085
 C        -3.4118523597       -4.8778827383       -7.7484380282
 O        -2.2518447116       -4.8095017967       -7.9851278253
 C        -4.0771127202       -4.0983181003       -6.6514879416
 C        -3.0084166295       -3.2714936439       -5.8668125301
 C        -3.7117093456       -2.6210557221       -4.7216392216
 O        -4.5443147120       -3.2822911255       -4.1287764183
 C        -3.3246838150       -1.1162359140       -4.2193454510
 C        -4.3338598165       -0.0429706457       -4.8057500251
 O        -4.0816470537        1.1622212905       -5.1092866481
 C        -5.6837879653       -0.7210529230       -5.0833565744
 C        -6.7720204159        0.2645568642       -5.4135003139
 C        -7.1501319553        0.2715924723       -6.9730551074
 O        -6.9448290132       -0.6931324360       -7.6860640413
 C        -7.9275373103        1.5079469670       -7.5665550424
 C        -8.0564141073        1.3300335446       -9.1038125768
 O        -7.8956787494        0.2946474395       -9.7674659905
 C        -8.5053012909        2.5623640848       -9.8606202377
 C        -9.1278166030        2.1302730653      -11.2724501421
 C       -10.0334774003        0.9601813025      -11.1015440253
 O       -10.6799996079        0.8425231648      -10.0773403288
 C       -10.1102764565       -0.2404435812      -12.1695204812
 C        -9.5384594164       -1.4962849409      -11.4372121014
 O        -8.4795013417       -1.9052322839      -11.7342853862
 C       -10.4779444102       -2.2239291548      -10.2951208484
 C       -10.0651665845       -3.7062890056      -10.1635343494
 C        -9.6169785422       -3.9944772268       -8.7300305020
 O        -8.5307912672       -3.5907118170       -8.3305162271
 C       -10.4436805315       -4.9239304407       -7.7957356880
 C       -11.5322745903       -4.1848647692       -6.8736562283
 O       -12.4014328673       -4.8603226872       -6.3977501164
 C       -11.4169035179       -2.6272631678       -6.6355658176
 C       -12.1613792072       -2.1966386133       -5.4082513068
 C       -12.9960925403       -0.9334153625       -5.5817264218
 O       -13.1083602218       -0.3131116319       -6.6100757599
 C       -13.7821982282       -0.3379744616       -4.4022682433
 C       -13.1992544200        0.8977150755       -3.6517604053
 O       -13.4327135088        1.1161138557       -2.5070318109
 C       -12.5997042430        2.0315617221       -4.5082425598
 C       -11.5555295803        2.7005855245       -3.6782465338
 C       -10.2307648645        1.7841712763       -3.3167169527
 O       -10.2396669925        0.6139142184       -3.7122527654
 C        -9.1026469466        2.4016054300       -2.4143574771
 C        -8.0750065926        3.1720521947       -3.2802964861
 O        -8.0144250568        2.8323899321       -4.4417195969
 C        -6.9916323861        4.2127975097       -2.8419910509
 C        -9.7975220041        3.2526317301       -1.2888777300
 C        -8.4199405646        1.1163167997       -1.7764933342
 C       -15.0957292910        0.3381526256       -5.0734265178
 C       -14.2349348062       -1.3870563351       -3.2998857147
 C       -11.2933518143       -6.1108138039       -8.5590081398
 C        -9.5046230351       -5.7130164725       -6.8387112867
 C       -11.6066107756       -0.1549987574      -12.7186833287
 C        -9.1914163100       -0.1294631975      -13.3773841543
 C        -9.3198547335        1.6957276931       -6.9697921256
 C        -7.0372937823        2.8110949069       -7.4147636142
 C        -3.6327545883       -1.0853043840       -2.6903235265
 C        -1.9135455175       -0.6864872914       -4.5698895548
 C        -5.6289570471       -6.2806016145       -7.9685218388
 C        -3.5137877495       -6.8297519299       -9.4336085465
 C        -3.6371830282        0.6792916454      -12.5496021184
 C        -4.0109153871       -1.1368559229      -14.3214021662
 C         2.4247546462       -3.1668307353      -10.7621730270
 C         3.2664181434       -1.0019655837       -9.7864909554
 C         7.5107436271        0.9750970325      -12.6790321520
 C         7.5066445460        0.5941164235      -15.2118868326
 C        10.1370802092       -5.2816932097      -15.8902409200
 C        10.7795203033       -3.5975617478      -17.7209368678
 C         2.9262283826       -4.9182875639      -17.5464086752
 C         4.0783521742       -4.6611284174      -19.7119955900
 H         3.1615895580       -2.1540568394      -20.1821600645
 H         4.8682243310       -2.1644020271      -20.1851243854
 H         3.8758442471       -0.7722994121      -19.4226968585
 H         6.2533634858       -5.6544418200      -19.2012497871
 H         5.7695681325       -6.8771948662      -18.0236014752
 H         8.3802941257       -6.5619129763      -18.1351222683
 H         7.7093389742       -6.1600930208      -16.5741500794
 H         9.6271510253       -3.6460465026      -13.4970088802
 H         8.0433813842       -3.8114664870      -14.1819553768
 H         9.1452639128       -1.0041058697      -13.6085071960
 H         8.4860953714       -2.0588061551      -12.2509383425
 H         4.3275202420        1.9811823233      -12.6563905179
 H         5.1293533168        0.9761496533      -11.6851694797
 H         2.5000184042        0.5916080402      -13.4518542943
 H         2.7103139692        1.0345477490      -11.7359071987
 H        -0.4455944137       -2.5520260878      -10.1043014857
 H        -0.0380727886       -2.6687184566      -11.8343229487
 H        -1.5605878625       -0.3322551334      -10.8108294098
 H        -2.3578259986       -1.8840943807      -10.5967252085
 H        -3.9442665091       -3.3160682453      -12.9251013967
 H        -5.5292505828       -3.5239645048      -12.3120097915
 H        -2.9560474860       -3.9317019653      -10.8504929260
 H        -3.8059953913       -5.1390843242      -11.4650282810
 H        -4.3704440490       -4.8664872148       -5.9228299635
 H        -4.9845572214       -3.5531418809       -6.9935629692
 H        -2.4960787522       -2.5517959427       -6.5251462997
 H        -2.2289739115       -3.7747653006       -5.2775688018
 H        -6.0727015578       -1.3032549091       -4.2569316859
 H        -5.3493992890       -1.4981920727       -5.7386037221
 H        -6.4062076498        1.3488911539       -5.1276258266
 H        -7.7100644745        0.0137033402       -4.8898044430
 H        -7.7264834147        3.2428857771       -9.9789115162
 H        -9.3528506026        3.0091833595       -9.2638830537
 H        -8.3387833457        1.8785804248      -11.9922481777
 H        -9.8015317809        2.8808516687      -11.5596677032
 H       -11.5571397943       -2.1213331683      -10.5244724937
 H       -10.2777977468       -1.6806335628       -9.3834024644
 H        -9.2315307745       -3.8212519087      -10.8182612363
 H       -10.7301278806       -4.4618714722      -10.4654926697
 H       -11.7965985226       -2.3386793448       -7.5638432824
 H       -10.3972838395       -2.2409191287       -6.5521701401
 H       -11.4452014138       -2.1384385149       -4.6274241946
 H       -12.8208114841       -2.9551927005       -5.0004568837
 H       -13.3695495901        2.7481057974       -4.6175823228
 H       -12.1762066582        1.6260033430       -5.3835105177
 H       -12.0075335349        3.0094323561       -2.7252795258
 H       -11.1333890452        3.6083493131       -4.2199740066
 H        -7.3217142643        5.0345333916       -2.1902294325
 H        -6.5437837372        4.5852933560       -3.7142657462
 H        -6.2176233507        3.7609713607       -2.1889236345
 H       -10.6493335061        2.7554853261       -0.9727943285
 H       -10.1636369423        4.1405972555       -1.6472838747
 H        -9.1286563454        3.4120258282       -0.4577917040
 H        -7.6535523319        0.6196384479       -2.3534226416
 H        -9.1922727075        0.4078923618       -1.4736725331
 H        -7.8275281505        1.2956682209       -0.8338541089
 H       -15.8390138437       -0.3392829031       -5.3597278088
 H       -14.7868670216        0.9469855608       -5.8867475156
 H       -15.5552398218        0.9804300424       -4.2512010744
 H       -13.4595855346       -1.9352754323       -2.7727996843
 H       -14.8509808230       -2.1048428977       -3.7221388423
 H       -14.8063077642       -0.8123491869       -2.5815496243
 H       -12.2710018685       -5.7849141917       -8.6973788543
 H       -11.3205023966       -6.9761430775       -7.8718621273
 H       -10.7736715923       -6.4864363845       -9.4731087395
 H        -9.8893468739       -5.8011458089       -5.8275308363
 H        -8.5665224182       -5.2042008883       -6.8210500893
 H        -9.3189019760       -6.6956362351       -7.2927582507
 H       -11.7352773572        0.8453046649      -13.2479526425
 H       -12.3388656778       -0.2326463544      -11.9255463218
 H       -11.7972888793       -0.9415168979      -13.4848631051
 H        -8.0698851405        0.0189097115      -13.1942377287
 H        -9.5595150513        0.5932015735      -14.1110255524
 H        -9.3242853116       -0.9993552223      -14.0024502495
 H        -9.6224452777        2.6568460563       -6.5153924698
 H        -9.4701526431        1.0677780089       -6.1201284488
 H       -10.1966496067        1.4124596303       -7.5607974632
 H        -5.9971774895        2.5114296637       -7.6229673175
 H        -7.2806917722        3.1360721611       -6.3475296073
 H        -7.3014433601        3.6806212732       -8.0100483712
 H        -4.6734874959       -1.0710142302       -2.5809791041
 H        -3.1489721232       -0.2865276262       -2.0227594438
 H        -3.3390730547       -2.1487365499       -2.3491786598
 H        -0.9989987346       -1.1205865236       -4.1465286412
 H        -1.7551678896        0.3217127132       -4.2762164367
 H        -1.7856432547       -0.7118417298       -5.6573808061
 H        -5.2855872952       -6.7864873150       -7.1320622336
 H        -6.2431422777       -6.7520313269       -8.6621899140
 H        -6.2313804083       -5.5028548054       -7.5162218431
 H        -2.9904321064       -6.3353665610      -10.3227383953
 H        -4.1730493400       -7.6396816711       -9.8309400686
 H        -2.7822576524       -7.2826056930       -8.7239577513
 H        -2.7841008274        1.1649216467      -13.0536673852
 H        -3.4744631350        0.9983425556      -11.5548256950
 H        -4.6313549544        1.1517356695      -12.8643546562
 H        -5.0125164002       -0.7660902661      -14.6452707448
 H        -3.9110128952       -2.2303024927      -14.4544938218
 H        -3.2317254143       -0.6882708557      -14.9866723227
 H         2.2897507157       -3.6920671246      -11.6850078050
 H         1.7417579116       -3.5435672125      -10.0461498294
 H         3.4094092713       -3.3574686148      -10.4494575533
 H         4.2399735005       -1.4427787367       -9.9201804517
 H         2.8737816828       -1.3485684158       -8.8455241074
 H         3.3737643824        0.0355214535       -9.6689903779
 H         6.9422742023        1.8943891134      -12.3641709465
 H         8.4890801544        1.3311299813      -13.0434085362
 H         7.6910772822        0.3756496530      -11.7634838707
 H         8.4947905743        0.1516377548      -15.4081355337
 H         7.5721965343        1.6357142435      -15.3725473424
 H         6.7927692410        0.1988621903      -15.9589035159
 H         9.4223817484       -5.7195614731      -15.2660485539
 H        11.1361418347       -5.1948998187      -15.5411322853
 H        10.1771129742       -6.1778431199      -16.5507474828
 H        10.7663672879       -4.4904455563      -18.3851433204
 H        11.6899463706       -3.4088215071      -17.2050643231
 H        10.5202187412       -2.6775759805      -18.2620342497
 H         2.1495403872       -4.8782288644      -18.1907989314
 H         2.6351858257       -4.4240615659      -16.6323559609
 H         3.0692914061       -5.9548415523      -17.2568480469
 H         4.8231405355       -4.3116373538      -20.4083587760
 H         3.0691769262       -4.5591200074      -20.1464135967
 H         4.3459979392       -5.7252917575      -19.7636388167
 Na        4.4856619293       -2.2819493914      -15.1489463548
 Na       -7.1532822340       -2.0583219463       -9.7299965771
