232

 C         3.9558892555       -1.8351740319      -19.5900142263
 C         4.1454099766       -2.6397249096      -18.3171352784
 O         4.2298839251       -2.0054364559      -17.2736410516
 C         4.1281084571       -4.1901515343      -18.3263808185
 C         5.4041469020       -4.7329720216      -17.6754250554
 O         5.6424070959       -4.4569150200      -16.4931919620
 C         6.2557373976       -5.8619687097      -18.3243787401
 C         7.6110406236       -5.9488719916      -17.5269246894
 C         8.2011633661       -4.4121678461      -17.5533929595
 O         7.7733179642       -3.6007347726      -18.3585657215
 C         9.4935746738       -4.0073070732      -16.6303071823
 C         9.2025830844       -2.7487629354      -15.6432945362
 O         9.5746588832       -1.6787466653      -15.9582377228
 C         8.7933193256       -3.0107255571      -14.2071938395
 C         8.4688125395       -1.7113602197      -13.2886949594
 C         7.0213765471       -1.3387885841      -13.5804842053
 O         6.1277773028       -2.1502712731      -13.5630368287
 C         6.7862698440        0.2023902229      -13.9189824895
 C         5.2615333663        0.4814318523      -13.9237837932
 O         4.6017023135        0.3308411923      -14.9036182502
 C         4.5389235952        0.8850058042      -12.5864690301
 C         3.1112056219        0.3055912801      -12.7117480465
 C         3.0113569530       -1.1708967080      -12.2535283165
 O         3.3413799327       -2.0241633026      -13.1365490507
 C         2.4068814828       -1.6306404842      -10.8856458649
 C         0.9850962566       -1.0578531622      -10.7334564962
 O         0.7717424977        0.1228450919      -10.4865851055
 C        -0.2473211724       -2.0115940020      -10.9231811216
 C        -1.5669370054       -1.1981193444      -11.0788362563
 C        -2.0079691279       -1.2942375683      -12.5763440701
 O        -1.3649565938       -1.4931125464      -13.5977976993
 C        -3.5351140309       -0.9250647089      -12.7888013102
 C        -4.4758585896       -1.7838337381      -11.8138934906
 O        -5.1430440108       -1.2123631491      -10.9995778523
 C        -4.5415199021       -3.3499198839      -12.0473667191
 C        -3.8771556143       -4.1710538263      -10.9200710246
 C        -4.7783496581       -4.4165954332       -9.6918414315
 O        -5.6117043289       -3.6437958422       -9.2298519752
 C        -4.3329557236       -5.5781485319       -8.8160384254
 C        -3.3850282500       -4.8263704542       -7.8218290556
 O        -2.2353968397       -4.7435322231       -8.1055916769
 C        -4.0421116229       -4.1074143863       -6.6556481748
 C        -2.9682197317       -3.3393472241       -5.9322544146
 C        -3.6427662509       -2.5980717454       -4.6898486266
 O        -4.5869546586       -3.1202579822       -4.1394420046
 C        -3.2897309183       -1.1641566616       -4.2345122177
 C        -4.2523634156       -0.1908338855       -4.9817722023
 O        -3.9998666873        0.9911697853       -5.1473605452
 C        -5.7618471434       -0.7162074950       -5.0927872813
 C        -6.7494054740        0.4123819338       -5.4107776806
 C        -7.1008309957        0.3053672487       -6.9182964422
 O        -6.7330889199       -0.6828914894       -7.5607009141
 C        -7.7871023340        1.5531258128       -7.4867672213
 C        -8.0584363344        1.3971162042       -9.1181151502
 O        -7.9059050345        0.3517395833       -9.6629715591
 C        -8.5218088611        2.6521236345       -9.8548549448
 C        -9.0655630123        2.1715519613      -11.1815390908
 C       -10.0491512128        0.9162305599      -10.9854286378
 O       -10.7698189415        0.8330525020      -10.0460082823
 C       -10.1311143969       -0.2268659108      -12.1425906633
 C        -9.6135006219       -1.5421037956      -11.4857888618
 O        -8.4897846173       -1.8821732001      -11.6838097439
 C       -10.3710207386       -2.2330722243      -10.3435650123
 C       -10.1344218275       -3.7551736824      -10.1655659817
 C        -9.6458011531       -4.1231990119       -8.7961821096
 O        -8.6024268697       -3.6434012590       -8.3794093223
 C       -10.3956297502       -5.0428685363       -7.8228917525
 C       -11.5179969506       -4.1991577731       -6.9374972454
 O       -12.3423175434       -4.8618156018       -6.3185461521
 C       -11.4042856777       -2.6002361214       -6.7433533080
 C       -12.2372804742       -2.2598139945       -5.3025859374
 C       -13.0235864621       -0.9408260023       -5.5369782794
 O       -13.0155792439       -0.3301415555       -6.6019855082
 C       -13.8904146676       -0.2786655925       -4.3157050348
 C       -13.1967078418        0.9762621868       -3.6831508334
 O       -13.2554803422        1.0854449003       -2.4759916526
 C       -12.5297902738        2.0808523776       -4.5848011383
 C       -11.4842673414        2.6955112658       -3.7121482318
 C       -10.3217404195        1.7238566473       -3.4102734005
 O       -10.3704386665        0.5460912797       -3.8744111737
 C        -9.2296736599        2.2797494126       -2.5095719210
 C        -8.1106108523        3.0774957723       -3.4153178343
 O        -8.0638636424        2.8342164490       -4.5784989622
 C        -7.0854033334        4.0098159979       -2.8160203312
 C        -9.8198952500        3.1864069367       -1.3561065723
 C        -8.5001190101        1.1430901934       -1.8514020591
 C       -15.1878425710        0.2950419286       -4.9115709812
 C       -14.0779486420       -1.3364850768       -3.2052644754
 C       -11.2732009154       -6.1172604985       -8.5929153209
 C        -9.4298333650       -5.6301341731       -6.7576373938
 C       -11.5716463282       -0.3189393165      -12.6099132736
 C        -9.1830639338       -0.0595166238      -13.3936102067
 C        -9.2969719301        1.5594722504       -6.9850732344
 C        -6.9914043065        2.8473085530       -7.2264952024
 C        -3.5511057151       -0.9758488626       -2.7046894442
 C        -1.8014408730       -0.8547831514       -4.4754512683
 C        -5.5638680925       -6.1281314179       -8.0652110214
 C        -3.6155952918       -6.7992278815       -9.4857301377
 C        -3.7715350693        0.5994937794      -12.4805272266
 C        -3.9771583026       -1.2642847265      -14.2165458289
 C         2.2971425065       -3.1767938450      -10.8621798651
 C         3.1741083673       -0.9936707153       -9.7858821899
 C         7.5531084416        0.9704592549      -12.6833505178
 C         7.4000040611        0.6794044212      -15.2192031511
 C         9.9931612884       -5.1485913322      -15.7604904515
 C        10.6551418802       -3.5247773426      -17.5414210417
 C         3.0947394824       -4.8095980271      -17.3106603658
 C         3.9776669837       -4.7872013276      -19.8088413506
 H         3.0277963843       -2.1905699866      -20.0275260379
 H         4.7372027216       -1.9489988477      -20.3899395681
 H         3.6982610540       -0.7862590757      -19.3636026619
 H         6.2533423997       -5.7487477909      -19.4264952415
 H         5.6141737509       -6.7681044770      -18.0663819053
 H         8.2926292538       -6.6535004860      -18.0406545352
 H         7.3076686392       -6.5405607365      -16.6336327023
 H         9.6505138582       -3.4751115454      -13.7592875623
 H         7.9895929998       -3.7316630992      -14.0475887291
 H         9.1794862417       -0.9062779531      -13.5485564025
 H         8.4927777039       -2.0251229605      -12.2517414915
 H         4.4976847151        1.9317755939      -12.2417566704
 H         5.1862853437        0.5491935925      -11.7601778373
 H         2.7837842249        0.3012759162      -13.7948304353
 H         2.5140459358        1.0961312207      -12.2646482031
 H        -0.3531822918       -2.6929058788      -10.0838220211
 H        -0.0429443476       -2.5457898788      -11.8450962986
 H        -1.3739935360       -0.1331350054      -10.8179815668
 H        -2.3170089970       -1.5690698159      -10.3828982742
 H        -4.2423502770       -3.5019397358      -13.0701611825
 H        -5.6215770106       -3.6226152310      -11.9477022901
 H        -2.7948048232       -3.8688312129      -10.7764829574
 H        -3.6654351347       -5.1765371269      -11.4042730865
 H        -4.5320976087       -4.6880514325       -5.8758003141
 H        -4.7986078976       -3.4140579047       -7.1278457571
 H        -2.6743969490       -2.4984704596       -6.6242748639
 H        -2.0922748453       -3.8226184678       -5.5779352869
 H        -6.1462896425       -1.1905851794       -4.1553423825
 H        -5.7190094361       -1.5790087075       -5.7154763400
 H        -6.4171296103        1.4382744627       -5.1699738525
 H        -7.7286920193        0.1784697105       -4.9319881225
 H        -7.6165268995        3.2080408660      -10.0966048030
 H        -9.2172159494        3.2732238282       -9.2755271696
 H        -8.2004822093        1.8515010802      -11.7037861839
 H        -9.6571726526        2.9782999387      -11.5687553850
 H       -11.4381623955       -2.1254047455      -10.4766951097
 H       -10.0599022552       -1.5986036176       -9.4457388819
 H        -9.5047809086       -4.1748537267      -10.9496580531
 H       -11.0771181771       -4.3186327063      -10.3080082786
 H       -11.8270240496       -2.1752613227       -7.5870888492
 H       -10.3693182932       -2.3229676345       -6.6702337439
 H       -11.5659221077       -2.2214981256       -4.4438170450
 H       -12.9065178656       -3.0244851618       -5.0243097243
 H       -13.3255900968        2.8596067806       -4.7172564410
 H       -12.1526865075        1.5743781724       -5.4555329716
 H       -11.9978641025        2.8450687921       -2.7297743992
 H       -10.9833378238        3.5939940073       -4.0265642711
 H        -7.4813531262        4.6740081588       -2.1141269171
 H        -6.5523705036        4.5539654898       -3.5791458201
 H        -6.3765954236        3.4585314987       -2.2421700094
 H       -10.3318300210        2.5434819608       -0.6679216495
 H       -10.6104735798        3.8804108375       -1.6488966854
 H        -9.0488683735        3.7854216206       -0.8750534931
 H        -7.6404796540        0.7942702007       -2.4855458126
 H        -9.0545227898        0.2405067637       -1.5515020982
 H        -7.8722808511        1.4683805404       -1.0207896742
 H       -15.7531441180       -0.4393265719       -5.4357168061
 H       -14.8280572220        1.0821967605       -5.6564139367
 H       -15.8233666827        0.7149177394       -4.1939453575
 H       -13.1539838330       -1.5298733211       -2.8056868018
 H       -14.4724781106       -2.2643644256       -3.5385444544
 H       -14.6488859655       -0.9853482490       -2.3824642440
 H       -12.2896438203       -5.7992699484       -8.5308314925
 H       -11.1172988292       -7.1223784046       -8.2329391703
 H       -10.9062051364       -6.1948184115       -9.5704411889
 H        -9.9012937568       -5.4419503986       -5.7970874328
 H        -8.4283005897       -5.1715602316       -6.7586058483
 H        -9.3371332304       -6.7627047576       -6.9077494568
 H       -11.8200507621        0.6634128004      -13.0704691747
 H       -12.2959758448       -0.5139928821      -11.7923603736
 H       -11.6605810601       -1.0421302701      -13.3605962497
 H        -8.1063923889        0.0531303687      -13.0425292767
 H        -9.4038970759        0.7805114598      -14.0252089762
 H        -9.2737239553       -0.8682024625      -14.0782292798
 H        -9.7744976972        2.5705713953       -6.7796792750
 H        -9.4895530456        1.1108684240       -5.9413137269
 H       -10.0104825867        1.0158132172       -7.5547612050
 H        -5.9751264551        2.6263150819       -7.4583817659
 H        -7.2013838788        3.2935266772       -6.2646405992
 H        -7.2965739308        3.5768740030       -7.9423283441
 H        -4.7553337449       -0.9235197869       -2.4171729978
 H        -3.0378090555       -0.0941023848       -2.3199773560
 H        -3.2124432947       -1.8876343614       -2.2520584499
 H        -1.0464334340       -1.4596454506       -4.0276720426
 H        -1.4768565200        0.1655489899       -4.1745194703
 H        -1.5738326015       -0.9144044004       -5.5298688617
 H        -5.0495415243       -6.7203351552       -7.3679639654
 H        -6.2895152141       -6.6591021978       -8.7434738612
 H        -6.1122027955       -5.4320599848       -7.4072859898
 H        -2.9253675894       -6.5021247051      -10.2678466248
 H        -4.4092481497       -7.4706292276       -9.9178991852
 H        -3.0928198634       -7.3570051634       -8.7522478273
 H        -2.9197006346        1.1191241089      -12.9186057636
 H        -3.7925313135        1.0099222716      -11.4380128150
 H        -4.6781588012        0.9835485508      -12.9552402959
 H        -4.9949246801       -0.6992959931      -14.3873466963
 H        -4.1060492121       -2.3195312658      -14.4073781602
 H        -3.2362998402       -0.8371671308      -14.9383747425
 H         1.9357217852       -3.5644535044      -11.8191002682
 H         1.6804418325       -3.5423144311      -10.0251448251
 H         3.2976796544       -3.5525434236      -10.7429698146
 H         4.2172792820       -1.2359111299       -9.8777393623
 H         2.7685711210       -1.2150814163       -8.7959988310
 H         3.0684074653        0.1208877429       -9.8306871251
 H         7.5310578428        2.0471450880      -12.7327389400
 H         8.6734612099        0.6793189173      -12.7134967082
 H         7.1381199398        0.6602962214      -11.7344289541
 H         8.3887106023        0.1707455006      -15.4430886583
 H         7.6233200252        1.7018814092      -15.1739008563
 H         6.7191273013        0.4899436687      -16.0278658315
 H         9.2770961309       -5.5221076852      -14.9706124112
 H        11.0080118199       -5.0212574494      -15.5308579308
 H         9.9037063655       -6.0849824874      -16.3045280796
 H        10.5812311805       -4.2328642310      -18.4628036605
 H        11.6177692275       -3.5469052428      -17.0440742404
 H        10.4187388190       -2.5340335703      -17.7832608060
 H         1.9902397098       -4.6593846637      -17.5548708807
 H         3.2945398378       -4.3532696380      -16.3142825876
 H         3.2610003322       -5.8927543238      -17.1684779683
 H         4.7630140204       -4.6561772092      -20.5333086344
 H         3.0517155543       -4.4838270237      -20.2251847841
 H         3.9249623411       -5.8353947844      -19.7496032378
 Na        4.5706810819       -2.2685841269      -15.1960115267
 Na       -7.1169600634       -2.0000824757       -9.7377019523
