232

 C         3.8528724094       -1.9929316371      -19.7501253016
 C         4.1360382487       -2.6768057507      -18.4472404227
 O         4.1510781426       -2.0089666663      -17.4244507242
 C         4.0036515377       -4.2604891421      -18.3032380016
 C         5.3894546744       -4.7142264752      -17.6520041112
 O         5.5846135441       -4.4007219203      -16.5104576447
 C         6.4061556489       -5.7371069717      -18.3455270530
 C         7.6595531412       -5.7249960133      -17.4741143065
 C         8.1412655724       -4.3270813985      -17.3771759488
 O         7.6865334381       -3.4663798985      -18.0634677589
 C         9.5095984808       -4.0556949280      -16.4465866447
 C         9.1457003814       -2.8320529992      -15.5408085141
 O         9.0495846252       -1.6987111062      -16.0193801356
 C         8.7332731135       -3.0130611047      -14.1376922720
 C         8.5536314276       -1.6867891369      -13.4654175275
 C         7.1141205312       -1.1809727279      -13.7078856770
 O         6.2546242648       -2.0261079274      -13.8829603245
 C         6.8868022513        0.3213020347      -13.8864925064
 C         5.2206919180        0.5140560386      -13.9587669749
 O         4.6876013082        0.7203770517      -15.0458960094
 C         4.4044604655        0.6545490843      -12.6446164528
 C         2.9069549503        0.2649477911      -12.6409528981
 C         2.8944467662       -1.1802690185      -12.4052375267
 O         3.1528958717       -1.9786639383      -13.2561747594
 C         2.4097545383       -1.6349657508      -11.0013321817
 C         0.9330665090       -1.0124048483      -10.6996400733
 O         0.9292348975        0.1485741495      -10.4301686866
 C        -0.2680455603       -1.8759835357      -10.7989119043
 C        -1.5596920330       -1.0497452829      -11.0113697597
 C        -2.0485053741       -1.3005711081      -12.4390439104
 O        -1.3025516644       -1.5765963401      -13.3325124883
 C        -3.6080933727       -0.9432023886      -12.7839662739
 C        -4.5776244160       -1.8472250305      -11.7748296219
 O        -4.9438986056       -1.3462947633      -10.7157896026
 C        -4.7678171625       -3.3751441076      -11.9959174543
 C        -3.8692956225       -4.1289595518      -11.0229978792
 C        -4.7399679360       -4.3781556391       -9.8023726980
 O        -5.6965615343       -3.6998611306       -9.4516198484
 C        -4.3471502111       -5.5900273150       -8.8157375744
 C        -3.2520796241       -4.7897326107       -7.8757072676
 O        -2.1127941133       -4.6777107520       -8.2870719965
 C        -3.8055120411       -4.1959663395       -6.5747125912
 C        -2.9241351375       -3.2334761067       -5.8361001666
 C        -3.6680316523       -2.6571644113       -4.5359087848
 O        -4.6240967451       -3.2516144642       -4.1041798955
 C        -3.1759252614       -1.1892932777       -4.0728212775
 C        -4.1076924466       -0.2668621715       -4.9074774779
 O        -3.8025473171        0.7719643408       -5.5334993171
 C        -5.5960977539       -0.6683372726       -4.8355343812
 C        -6.4952421840        0.4312835776       -5.3775797793
 C        -6.8073873250        0.3350860457       -6.9611234646
 O        -6.5425883601       -0.6366453975       -7.6206662975
 C        -7.6526929984        1.5564146225       -7.5790759113
 C        -7.9989086876        1.3463731099       -9.0790173439
 O        -7.9012862088        0.3054082898       -9.7812095783
 C        -8.5611065798        2.5838101882       -9.8473151212
 C        -9.1695244150        2.0890766318      -11.2799494709
 C       -10.0645981962        0.9068077651      -11.0290480663
 O       -10.8254836013        0.8570644111      -10.0756800337
 C       -10.0582913368       -0.2528266320      -12.0653797929
 C        -9.5219982531       -1.5327874465      -11.3439899536
 O        -8.4014416759       -2.0494415431      -11.6254600961
 C       -10.4028645482       -2.1036853153      -10.2652158624
 C       -10.3684672608       -3.6057977736      -10.1265092951
 C        -9.7158299680       -3.9605319890       -8.7661005079
 O        -8.5902426183       -3.5257484478       -8.5894559183
 C       -10.4362996832       -4.9206981997       -7.8290782773
 C       -11.5597782500       -4.2022583563       -6.8346395137
 O       -12.3557717876       -4.9278676738       -6.3248483657
 C       -11.4861531201       -2.6701283227       -6.5552313595
 C       -12.2626736815       -2.2638811828       -5.4401671812
 C       -13.0217520307       -0.8753959456       -5.5259085216
 O       -12.8968834025       -0.2206566889       -6.5333841869
 C       -13.7633581847       -0.3811166965       -4.2843769098
 C       -13.1168144052        0.9579203249       -3.7267556650
 O       -12.9499315414        1.0176946797       -2.5455481984
 C       -12.6508308909        2.0369441875       -4.7341899798
 C       -11.4698255946        2.7584805829       -4.0749119165
 C       -10.4485182582        1.7313397344       -3.4901492288
 O       -10.3570871909        0.6753332368       -4.0063071192
 C        -9.3014966952        2.1307635093       -2.4383324923
 C        -8.2981780957        2.9491382427       -3.3534270132
 O        -8.4648633504        2.9667113557       -4.5783653222
 C        -7.1524482962        3.7186001118       -2.7014589571
 C        -9.8137860440        3.0464010857       -1.2745960756
 C        -8.4630425674        0.9199941944       -1.9476461337
 C       -15.3090134992       -0.0770908698       -4.7875698306
 C       -13.9376784112       -1.3835643014       -3.1603839870
 C       -11.0975682043       -6.0998345916       -8.4959643840
 C        -9.3523744380       -5.5581692696       -6.7734514035
 C       -11.5595883535       -0.5609690870      -12.5005440937
 C        -9.3444232910        0.1826162731      -13.3228315180
 C        -9.1024620464        1.4693339405       -7.0526605815
 C        -6.9352854422        2.9394636835       -7.2927437064
 C        -3.3316183412       -0.9267085714       -2.5001882591
 C        -1.7689327103       -0.9276274174       -4.5080634629
 C        -5.6341122786       -6.0217862032       -8.0747614205
 C        -3.6483606853       -6.7342333885       -9.5801776922
 C        -3.8689643381        0.5245163985      -12.3968813580
 C        -3.8893539420       -1.2886458797      -14.2616282740
 C         2.6226299209       -3.1593740688      -10.9254122053
 C         3.3869728229       -1.1283985968       -9.8750165534
 C         7.4424975482        1.1756103502      -12.7292954476
 C         7.4312680429        0.7262971623      -15.3170243496
 C         9.7860349634       -5.3393395755      -15.5752040404
 C        10.5297549818       -3.7384525668      -17.6138062983
 C         2.7155773073       -4.4829523208      -17.3625511830
 C         3.6734805154       -4.9418747304      -19.6452475652
 H         2.8815996570       -2.1842851867      -20.2192079949
 H         4.6070399672       -2.2173281389      -20.4490435245
 H         3.8988051733       -0.8920827412      -19.5794908372
 H         6.6581850534       -5.1291482339      -19.2399407550
 H         5.9428175189       -6.6583704928      -18.6984639460
 H         8.3061383437       -6.4542032529      -17.9568369735
 H         7.5353883576       -6.1291343995      -16.4843351426
 H         9.3520990822       -3.6915230057      -13.5186669874
 H         7.7475693251       -3.4850001145      -14.1354251954
 H         9.2879453187       -1.0389811439      -13.9322625842
 H         8.6873928479       -1.7731214482      -12.3781097094
 H         4.4959772338        1.7312940126      -12.6103457020
 H         5.0081877148        0.3660146388      -11.8108805779
 H         2.4597198920        0.5418496010      -13.5505431993
 H         2.3931680336        0.8055871678      -11.8614192040
 H        -0.3105395094       -2.5381298893       -9.8991244999
 H        -0.0134031276       -2.5005308388      -11.7023431307
 H        -1.3023620435        0.0107535996      -10.9030461333
 H        -2.2884619553       -1.3887543901      -10.2434846542
 H        -4.5488052994       -3.5357846597      -13.0765868231
 H        -5.7751511395       -3.6942216160      -11.7401364964
 H        -2.9758672430       -3.6042679631      -10.7138007447
 H        -3.4247390955       -4.9354653253      -11.5575009652
 H        -4.2220992124       -4.8598351812       -5.8013244146
 H        -4.6359225606       -3.6705211445       -7.0137339151
 H        -2.8277680756       -2.3744003100       -6.4484705574
 H        -1.9031231173       -3.6245365090       -5.5799147605
 H        -5.8428517423       -0.8593648820       -3.8002906520
 H        -5.8387336652       -1.6693707159       -5.3027693821
 H        -6.0084177692        1.4046181118       -5.3323266867
 H        -7.4500814534        0.4584278661       -4.9378780572
 H        -7.8388970442        3.3762998132      -10.0977670336
 H        -9.4063895763        2.9760244947       -9.2583284501
 H        -8.2948648503        1.7176663260      -11.8612370336
 H        -9.8049624991        2.9221232708      -11.6103388525
 H       -11.4664424519       -1.8391999929      -10.4548038658
 H       -10.1092787671       -1.6003623203       -9.3654063538
 H        -9.7612293976       -4.1740862620      -10.8892151112
 H       -11.3602882858       -4.0628989645      -10.2362483361
 H       -12.0159159945       -2.0818773928       -7.4092991657
 H       -10.3833148451       -2.4680742556       -6.5519796903
 H       -11.6539763596       -2.1932877356       -4.5304696992
 H       -12.9388629183       -3.1655208886       -5.2226336344
 H       -13.4632654828        2.7616382779       -4.7993330936
 H       -12.3974315175        1.5257050795       -5.7017318194
 H       -11.7878395186        3.3598933118       -3.2485595596
 H       -10.8273090839        3.3959077897       -4.7259544450
 H        -7.5311201059        4.6878403160       -2.2324358208
 H        -6.4913818984        4.0693493218       -3.4795288702
 H        -6.5011382888        3.2153991913       -1.9450844279
 H       -10.7143861549        2.6533227202       -0.7183443442
 H       -10.0767270413        4.0823423104       -1.5941781588
 H        -8.9176662196        3.2693346494       -0.6100183669
 H        -8.1643941607        0.2385007576       -2.7178735253
 H        -9.0713084475        0.2591647005       -1.3534352321
 H        -7.4890003091        1.1530241991       -1.4997173874
 H       -15.6631794656       -1.0385314972       -5.1903137429
 H       -15.5005492908        0.6967877573       -5.4606676543
 H       -15.9268207284        0.0634030237       -3.8241554636
 H       -12.9837243581       -1.7036128312       -2.5932065403
 H       -14.4744352549       -2.2970295945       -3.5036976673
 H       -14.5647888313       -0.9741400668       -2.3233910366
 H       -12.1290588842       -5.8260899788       -8.6561058844
 H       -11.0232872463       -6.9391045310       -7.8172304839
 H       -10.5006475459       -6.5471419307       -9.3289258750
 H        -9.8290037876       -5.7119940488       -5.7784395282
 H        -8.4468411020       -4.9192468167       -6.6759236078
 H        -9.0535153555       -6.5189400234       -7.1611475869
 H       -11.9258474839        0.1889611017      -13.1624685159
 H       -12.1328837344       -0.5029513542      -11.6327977554
 H       -11.7019236474       -1.5596926885      -12.9525824422
 H        -8.2680043414        0.2647704916      -13.2519525126
 H        -9.6219345375        1.2137725353      -13.5250697772
 H        -9.6199982751       -0.4023114149      -14.1959100577
 H        -9.7187376490        2.2348864068       -7.4273418388
 H        -9.2400071455        1.6593478035       -6.0519199361
 H        -9.6449377313        0.5095519861       -7.1917923338
 H        -6.0204505905        2.8584798412       -7.8762553122
 H        -6.7951932082        2.9025705391       -6.1682129320
 H        -7.4587013951        3.8302532639       -7.6280287674
 H        -4.1772397957       -1.3492893062       -2.1675989865
 H        -3.4129597016        0.1378663826       -2.4323193964
 H        -2.5907871494       -1.3996202744       -1.8468599853
 H        -1.0705380672       -1.6589927383       -4.0297758523
 H        -1.3706512643        0.0351334914       -4.3041682949
 H        -1.4447458659       -1.0643127686       -5.5490111841
 H        -5.4620667144       -6.6478180870       -7.1450559263
 H        -6.2123731916       -6.5817058244       -8.8398512802
 H        -6.2044597110       -5.1035607368       -7.7504061178
 H        -2.5743311253       -6.7208194247       -9.4315419755
 H        -3.9255133103       -6.8665147595      -10.5730194003
 H        -3.9462300850       -7.6464940906       -9.0456028256
 H        -3.4539457109        1.3195301023      -13.0391145804
 H        -3.6625409372        0.7508738651      -11.3974018145
 H        -4.9579540651        0.6819797624      -12.4734244095
 H        -4.9068228775       -1.2993995641      -14.4768359839
 H        -3.5629640939       -2.3160243183      -14.4359972406
 H        -3.3462414647       -0.6077290421      -14.8587923686
 H         1.8993847404       -3.6923233401      -11.5860185710
 H         2.5208140937       -3.4912470444       -9.8778709883
 H         3.6488748604       -3.4351803221      -11.2880750656
 H         4.4350510074       -1.4671445699      -10.1288562611
 H         3.0173452577       -1.4825963171       -8.8928053114
 H         3.3961238178       -0.0588709411       -9.7001411992
 H         7.6829612070        2.1579188734      -13.1904337024
 H         8.3578483394        0.7858055628      -12.4009896866
 H         6.7055663968        1.3718450755      -11.9295765002
 H         8.4570380614        0.4543246493      -15.4915337476
 H         7.4257512334        1.8260549877      -15.5195365929
 H         6.7996293424        0.1355141070      -16.0289006340
 H         8.9270412605       -5.8599620256      -15.2313113403
 H        10.4125231753       -4.9810752827      -14.7063850125
 H        10.3324008357       -6.1633538330      -16.1434584821
 H        10.7772377306       -4.6628249094      -18.0852944731
 H        11.4139372936       -3.4010234889      -17.0840192940
 H        10.1252416272       -2.9004736081      -18.2525749139
 H         1.9127090216       -3.9262831850      -17.7727766925
 H         2.7683730385       -4.1957770944      -16.2796056401
 H         2.3670054112       -5.5617789602      -17.4047085460
 H         4.4619873057       -4.9463751402      -20.3793935111
 H         2.8145464034       -4.4381426879      -20.1091292051
 H         3.3751475379       -6.0038343017      -19.4950542359
 Na        4.6241853813       -2.3363543356      -15.2011497927
 Na       -7.1036184449       -1.7786704798       -9.5185138940
