232

 C         4.1162087391       -2.6026675612      -20.1277987378
 C         3.6057976354       -2.6274990043      -18.6978546443
 O         3.6419789914       -1.5906100484      -17.9951483143
 C         3.2146718595       -4.0006126447      -18.0563097013
 C         4.4311067660       -4.3957254314      -17.1072606716
 O         4.3954388150       -3.9960439629      -15.9675259126
 C         5.4883847566       -5.3554551361      -17.6218930100
 C         6.6833312926       -5.3016232270      -16.6927087696
 C         7.9344365863       -4.2346779520      -17.1184973072
 O         7.7214982545       -3.5461639559      -18.0664350387
 C         9.2286951022       -4.1134019844      -16.2831759784
 C         9.1001616298       -2.6609965305      -15.6002436171
 O         9.0313912597       -1.7135832008      -16.2916320645
 C         9.2618181130       -2.4109803290      -13.9410180856
 C         8.4851980978       -1.1597503100      -13.4281823647
 C         7.1572921100       -0.8130846225      -14.0764238156
 O         6.3287900457       -1.6345575328      -14.3241033240
 C         6.7827918827        0.7266533554      -14.2821289656
 C         5.1890211371        0.7778808260      -14.3134863667
 O         4.5933932626        0.5089980250      -15.3489221546
 C         4.6146180767        0.6675234461      -12.9279984176
 C         3.0754214030        0.1394988175      -13.0511099999
 C         2.9173435568       -1.4121969155      -12.7993556259
 O         3.0688716749       -2.3014519847      -13.6647974166
 C         2.4461210696       -1.9009927029      -11.4146111146
 C         1.1375110420       -1.1636039575      -10.9972670037
 O         1.1131911066        0.0717844470      -10.9937010845
 C        -0.1135427712       -1.9064655679      -10.3443184208
 C        -1.5080439042       -1.1375310626      -10.6072417643
 C        -2.1786916395       -1.5710416039      -11.9670865913
 O        -1.7442711686       -2.5275946701      -12.5820758645
 C        -3.5921193172       -0.8593364937      -12.3057990273
 C        -4.5547038451       -1.6871753801      -11.3971477595
 O        -5.0387561267       -1.1657004447      -10.3991013092
 C        -4.9205532072       -3.1581222567      -11.7654574285
 C        -4.2199196795       -4.2318375855      -10.9561831795
 C        -4.9298804833       -4.7465489158       -9.7753091448
 O        -6.0431372170       -4.3745771341       -9.4600803374
 C        -4.1002227195       -5.7553643316       -8.9063128405
 C        -3.2246453874       -4.6705513473       -8.1018383819
 O        -2.4216487445       -3.9603832624       -8.5977149128
 C        -3.5730995397       -4.4291070360       -6.6297451491
 C        -2.6899599548       -3.3020982603       -6.1946363424
 C        -2.9812093167       -2.8907982784       -4.6780711596
 O        -3.5624288976       -3.6633471422       -3.9752622384
 C        -2.8408132948       -1.4389451070       -4.2454560195
 C        -3.7021525942       -0.6444130560       -5.3858618814
 O        -3.0563453884       -0.2960641401       -6.3773205434
 C        -5.2362083716       -0.2057934974       -5.1750578309
 C        -5.4950466219        1.0466178968       -6.0785920926
 C        -6.4419752094        0.5685079834       -7.2656243539
 O        -6.5721809474       -0.6413106402       -7.4668094153
 C        -7.4929619522        1.5199619443       -7.7739250739
 C        -7.6384564186        1.3985063025       -9.3948398731
 O        -7.3855566788        0.3645439834       -9.9534132570
 C        -8.3129100630        2.4977707698      -10.1878741555
 C        -8.7022918154        2.0064883806      -11.5793747717
 C       -10.0759236233        1.2152250038      -11.5879293173
 O       -11.0396210672        1.7587518411      -11.1574691096
 C       -10.1594192998       -0.2006033980      -12.1481192913
 C        -9.6329472575       -1.2642054715      -11.1089307901
 O        -8.5905510268       -1.8785741188      -11.4111908702
 C       -10.4554712941       -1.6750832994       -9.8050685755
 C       -10.4388233383       -3.2207133288       -9.6439838947
 C        -9.5343273870       -3.6011415715       -8.3626550655
 O        -8.6358269263       -2.8756357917       -7.9968519429
 C        -9.8976250344       -4.8025053103       -7.5118856145
 C       -11.2429686724       -4.2869142542       -6.6917204914
 O       -12.2538240497       -4.8453210592       -7.0143387164
 C       -11.1196463647       -2.9668313367       -5.9268614131
 C       -12.4420578156       -2.8209281461       -4.9993370935
 C       -13.0113025056       -1.4046350270       -5.0578105361
 O       -12.7914676193       -0.7514604497       -6.0996831128
 C       -13.9509001020       -0.7323553948       -4.0447756653
 C       -13.0521158907        0.6675894436       -3.6648408087
 O       -12.6133739781        0.6115162309       -2.5315751289
 C       -12.7651582989        1.7959975426       -4.5657892804
 C       -11.6424250088        2.6154965129       -4.0275422584
 C       -10.4001020853        1.7115952565       -3.7638697559
 O        -9.9995082920        0.8494828194       -4.5958959291
 C        -9.5379712069        1.8545262321       -2.4961815567
 C        -8.5322092248        3.0535884827       -2.8133710615
 O        -8.5923703859        3.6910444733       -3.8247333263
 C        -7.5067273298        3.3057953830       -1.7381655141
 C       -10.4326801756        2.2438391863       -1.2958018104
 C        -8.6546098146        0.6466310618       -2.2734157804
 C       -15.2346806062       -0.3043376608       -4.8493801889
 C       -14.2456623754       -1.4833566006       -2.7511535535
 C       -10.2537240613       -6.0814120672       -8.3071083704
 C        -8.6820038221       -4.9845317976       -6.4442916840
 C       -11.6622151629       -0.4451345165      -12.4979035743
 C        -9.4869452302       -0.3705341448      -13.5175619768
 C        -8.9071011439        1.0574245439       -7.2660001086
 C        -7.3565819269        3.1000846207       -7.4206159542
 C        -3.4662669146       -1.2018937601       -2.7957642184
 C        -1.3095957458       -1.0009264567       -4.2738887879
 C        -5.0720708881       -6.5402397115       -7.9958495182
 C        -3.2318427963       -6.6180694758       -9.8319096394
 C        -3.6072473821        0.6102896788      -11.7325145051
 C        -3.8421981918       -0.9952294319      -13.8155178363
 C         2.5205357030       -3.5034608109      -11.3456290286
 C         3.5961996766       -1.3234660050      -10.4814836540
 C         7.3636359511        1.6352527805      -13.2198365756
 C         7.4188929978        1.0988303043      -15.6430674032
 C         9.3710027635       -5.3316024372      -15.2925570187
 C        10.4879448981       -3.9861978005      -17.2104207013
 C         1.8659913616       -3.8953749187      -17.2051193941
 C         3.0041708526       -5.0982355245      -19.0851001963
 H         3.4430361945       -2.8777345806      -20.9395074228
 H         5.0194527169       -3.2270501556      -20.1963875982
 H         4.6473056837       -1.6264619313      -20.2484171092
 H         5.6357694267       -5.0454738133      -18.6855464277
 H         4.9445618402       -6.3365573722      -17.6035622408
 H         7.0447904504       -6.3399340302      -16.6649644283
 H         6.5122815780       -4.9601690524      -15.6607639214
 H        10.3022606206       -2.3368801095      -13.6267545111
 H         8.8427483427       -3.2035771346      -13.3311988384
 H         9.1378291178       -0.2681173434      -13.4979654255
 H         8.1820707266       -1.1871574382      -12.3894895985
 H         4.6193311114        1.5400113053      -12.3238563970
 H         5.2043408535       -0.1821624926      -12.5286757347
 H         2.6330142592        0.2626958067      -14.0680805368
 H         2.4129610789        0.6227023670      -12.3164540154
 H         0.1042515918       -2.0836494974       -9.2912227996
 H        -0.0886141000       -2.9637110926      -10.6509625752
 H        -1.2236834000       -0.1111751263      -10.5215222916
 H        -2.1888349530       -1.4307144836       -9.7857545429
 H        -4.8007057220       -3.2459137029      -12.8739311001
 H        -5.9976816281       -3.3308148726      -11.5643274487
 H        -3.1376880442       -3.8733011166      -10.7686676493
 H        -4.2453429380       -5.1115710524      -11.6750973314
 H        -3.5581655028       -5.3502190362       -6.0302292756
 H        -4.6296441848       -4.1239260863       -6.5262140024
 H        -2.7547920143       -2.4455713663       -6.8674298363
 H        -1.6632469475       -3.6792071133       -6.3944177716
 H        -5.3686601793        0.1497165429       -4.1572337370
 H        -5.8556803209       -1.1118729718       -5.4034617833
 H        -4.5473208810        1.3710351315       -6.5415946421
 H        -6.0497944731        1.7768152194       -5.6515781323
 H        -7.6435638623        3.2923284301      -10.4376553711
 H        -9.1552876475        2.9343670980       -9.5804236052
 H        -7.8323079106        1.4838867319      -12.0625756666
 H        -8.8009128196        2.9248817326      -12.1411918486
 H       -11.5035934844       -1.2602174127       -9.6799965098
 H        -9.8493859893       -1.3088857725       -8.9556689660
 H        -9.9778838202       -3.7319058722      -10.5159650745
 H       -11.4299308562       -3.6166717806       -9.4439246367
 H       -11.0073756716       -2.1366281126       -6.5659989973
 H       -10.2093741704       -3.1010361483       -5.3856306113
 H       -12.2854075901       -2.9857473130       -3.9730308659
 H       -13.1699115269       -3.5070144951       -5.4351065319
 H       -13.7527679682        2.3171389421       -4.7243729679
 H       -12.6093779173        1.4816967442       -5.6322008220
 H       -11.7098924826        3.3183727960       -3.2505316987
 H       -11.2584083936        3.2673378224       -4.8105610852
 H        -6.6276948620        3.7429447378       -2.1490249740
 H        -7.2436134668        2.4292104097       -1.2069215272
 H        -7.8692597414        3.8700898849       -0.8811862948
 H       -10.8484002788        1.3639706957       -0.9390718119
 H       -11.2173031435        2.9178843205       -1.5684972370
 H        -9.8768681279        2.5527576709       -0.4776119013
 H        -8.3409102443        0.1764518405       -3.2168323881
 H        -9.1905244712       -0.0981595746       -1.6526819125
 H        -7.7916667443        0.7268269875       -1.5550432032
 H       -15.6891738156       -1.1743876856       -5.1925712801
 H       -14.9019294876        0.2609274094       -5.7725360203
 H       -15.9804461080        0.2277682788       -4.2542230032
 H       -13.4038588477       -1.8740365719       -2.3101974392
 H       -14.8537195578       -2.3340928879       -2.7951122183
 H       -14.6785966175       -0.8398991001       -2.0225860988
 H        -9.4018974603       -6.5102564359       -8.6866688894
 H       -10.9196574620       -5.8161483290       -9.0808934984
 H       -10.6086720712       -6.9394791514       -7.7510305897
 H        -7.7991221875       -4.4068629199       -6.6265078989
 H        -8.3907493270       -6.0059297052       -6.4569702662
 H        -8.8630210827       -4.7854136611       -5.3543996163
 H       -11.9614070318        0.1719373757      -13.4142340904
 H       -12.2752045948       -0.0696812275      -11.6616192042
 H       -11.8997043392       -1.4904980937      -12.6685067312
 H        -8.3472024652       -0.5862644211      -13.4194024398
 H        -9.6387878878        0.5208162286      -14.1141123416
 H        -9.8895654763       -1.1840546009      -14.0466580671
 H        -9.7114799994        1.8653850347       -7.4095808554
 H        -8.9110438632        0.6590744894       -6.1958276909
 H        -9.3659545689        0.2378798256       -7.7395966040
 H        -6.4210303214        3.5109132298       -7.6217803458
 H        -7.5687714708        3.1417843678       -6.3850310101
 H        -8.2261025330        3.4464669653       -7.8569025476
 H        -4.5885904699       -1.5393769797       -2.9217090108
 H        -3.4999130344       -0.1399869636       -2.6389818894
 H        -2.8110894933       -1.5467749800       -2.0540772162
 H        -0.7693732238       -1.7443444363       -3.6957383726
 H        -0.9556208004       -0.0954079802       -3.8505749642
 H        -0.8577050655       -1.1387926275       -5.2363997980
 H        -4.4760715267       -6.9311301504       -7.2126111564
 H        -5.6033622192       -7.3559135143       -8.5421187597
 H        -5.9580779742       -5.9211265555       -7.6984994350
 H        -2.2711054745       -6.0923142301      -10.1017073283
 H        -3.6589322149       -6.7890938827      -10.8643075504
 H        -2.9469563252       -7.5770004750       -9.4970115863
 H        -3.0100202507        1.2760421039      -12.4080417946
 H        -3.2962632276        0.7572480266      -10.6957628765
 H        -4.6919299044        0.9474879278      -11.9143112010
 H        -4.9024169112       -0.5745172897      -14.1001068032
 H        -3.7176462700       -2.0189819813      -14.1154217517
 H        -3.1309530502       -0.3804816311      -14.4178740393
 H         1.8175961631       -3.9649545445      -12.0042679436
 H         2.1879360195       -3.7756640641      -10.3740906149
 H         3.4661206240       -3.9110748442      -11.5057737614
 H         4.5400819560       -1.6843302512      -10.8081373788
 H         3.4534351243       -1.7939909780       -9.5538822390
 H         3.5915442713       -0.2631974963      -10.4476862283
 H         6.9254112459        2.5976814491      -13.4299227443
 H         8.4753859613        1.6114587904      -13.3403300667
 H         7.1227657586        1.2133519737      -12.2860095813
 H         8.5410020725        1.0233173842      -15.5255435367
 H         7.1820140752        2.0469452688      -16.0081267807
 H         7.2238427801        0.3930471681      -16.4702185968
 H         9.0400168167       -4.9636762586      -14.3176472428
 H        10.4237130577       -5.4684866708      -15.2597143271
 H         9.0942809841       -6.2670027191      -15.7305982216
 H        10.8392638430       -5.0582068740      -17.5350230133
 H        11.1339422998       -3.5600654418      -16.5051970650
 H        10.2373635728       -3.3817450032      -18.0411425492
 H         1.0668833097       -3.4427100109      -17.8256838070
 H         2.1119670705       -3.3463100813      -16.2638258015
 H         1.5582739606       -4.9187770024      -16.9572071735
 H         3.8159222673       -5.1729165288      -19.7973443920
 H         2.0285244217       -4.9562592572      -19.5749856438
 H         2.8421063225       -6.0363723952      -18.5330579480
 Na        4.3115352537       -1.6763151971      -15.5134590305
 Na       -7.0176714914       -1.9890782990       -9.4595527944
