232

 C         4.0098648831       -2.5312069146      -19.9764445762
 C         3.7127888825       -2.6970705544      -18.5286423293
 O         3.6787915519       -1.7514248090      -17.7858708577
 C         3.1840157033       -4.0889260227      -17.9810147854
 C         4.2342483294       -4.4367856222      -16.9423156945
 O         4.2075097427       -4.0840669605      -15.7584595572
 C         5.5333538729       -5.2523142147      -17.4470064773
 C         6.7241817151       -5.2893160062      -16.4813796387
 C         7.7614626413       -4.3757487463      -17.0064375541
 O         7.6551398069       -3.6854369313      -18.0122392715
 C         9.1728985061       -4.2329684181      -16.2824045352
 C         9.1097433056       -2.7455991737      -15.7006599864
 O         9.2214055607       -1.7370882201      -16.4179509870
 C         8.9208120189       -2.6139432482      -14.1680138156
 C         8.6801550891       -1.0948159756      -13.7537176883
 C         7.1689032471       -0.6878709719      -14.2072173261
 O         6.2884419743       -1.5815089795      -14.3225355844
 C         6.7856650337        0.8091054629      -14.3032891092
 C         5.1883619185        1.0175347639      -14.3185348163
 O         4.6608769062        1.1105319683      -15.4127482537
 C         4.3097093848        0.8540617270      -13.0456179919
 C         2.9571885186        0.2023490948      -13.3123371515
 C         2.9448858572       -1.4085237848      -12.8990648901
 O         3.2131828361       -2.2670950403      -13.6816177766
 C         2.5223624456       -1.9234694591      -11.4509534040
 C         1.0303015626       -1.2363939974      -11.0231873171
 O         0.8858124852       -0.0513293385      -11.1267714293
 C        -0.0767731122       -2.1415398765      -10.4746166170
 C        -1.3585949136       -1.3882913893      -10.4555900942
 C        -2.1367619547       -1.7215948895      -11.6510187602
 O        -1.9072444248       -2.7037532578      -12.3165053440
 C        -3.5518413073       -0.8030132807      -12.0576830809
 C        -4.6361311075       -1.6354108637      -11.2918688760
 O        -5.0213934442       -1.2323361267      -10.2063245716
 C        -5.2289429744       -2.9466527925      -11.8927400294
 C        -4.4331167914       -4.2526960107      -11.2621251419
 C        -4.9750681636       -4.7399127468       -9.8787989761
 O        -5.9703298227       -4.2073556607       -9.4524514418
 C        -4.1407916952       -5.7387231354       -8.9996089636
 C        -3.1480317322       -4.6256020370       -8.2140925915
 O        -2.2229151533       -4.1031293024       -8.8494102352
 C        -3.3783674243       -4.4332136878       -6.7179530530
 C        -2.3992242817       -3.4093555855       -6.0959488983
 C        -2.9523885367       -2.9112949532       -4.7677081024
 O        -3.5574674811       -3.6431310312       -3.9947706152
 C        -2.8349114596       -1.4122807157       -4.3448829390
 C        -3.5215067510       -0.5282577405       -5.4982956474
 O        -2.8193001287       -0.3046625784       -6.4467298143
 C        -4.9880477982        0.0718255007       -5.2805300826
 C        -5.4042085153        1.0301464705       -6.3718614679
 C        -6.4990838698        0.5079122220       -7.3028851378
 O        -6.5430738439       -0.6571166930       -7.5316018686
 C        -7.5915731385        1.5325291842       -7.8872982460
 C        -7.6850447105        1.3633644947       -9.4612214372
 O        -7.2707553178        0.4033507814      -10.0825145127
 C        -8.2112808368        2.5478864500      -10.3475409055
 C        -8.6407364439        2.0053361043      -11.8152593746
 C        -9.9559488119        1.3141495042      -11.7442952890
 O       -10.8899987528        1.9107154549      -11.2596573221
 C       -10.1750665064       -0.2579507813      -12.1895441108
 C        -9.5360173668       -1.2340037779      -11.1771611018
 O        -8.4305333135       -1.6897662379      -11.3883072130
 C       -10.3718579263       -1.6788505731       -9.9859743087
 C       -10.3266636159       -3.2043755311       -9.5724459403
 C        -9.4578404837       -3.4407058779       -8.2669634253
 O        -8.5440822587       -2.6864118115       -7.9344807418
 C        -9.8230019208       -4.6685739205       -7.3281327400
 C       -11.2449556688       -4.2032088592       -6.6038158482
 O       -12.2952287521       -4.7027657452       -6.9664254152
 C       -11.2302095041       -3.2337956232       -5.3690094815
 C       -12.5857391000       -2.9288993665       -4.8520909889
 C       -13.0789500712       -1.4808776017       -5.1839438288
 O       -12.6814839233       -0.9608957059       -6.1757479934
 C       -13.9774669046       -0.7448982553       -4.1148976993
 C       -13.0460626402        0.3707402986       -3.5899645306
 O       -12.5464143340        0.4415129561       -2.4824531200
 C       -12.7408525048        1.5689219332       -4.5282906625
 C       -11.7068547807        2.5373404915       -3.9212982398
 C       -10.4361802496        1.5680982995       -3.7018512216
 O       -10.1341133195        0.8099138121       -4.5346944249
 C        -9.5794195562        1.7571777716       -2.3454387828
 C        -8.6163012500        3.0139753040       -2.6044047611
 O        -8.5567742244        3.4961790060       -3.7308303779
 C        -7.7892586158        3.7273983191       -1.5115221297
 C       -10.2062426359        2.0755711481       -1.0424000361
 C        -8.7902437354        0.4755892989       -2.2137510714
 C       -15.2382222857       -0.2002854006       -4.7550080820
 C       -14.3285978979       -1.5294654351       -2.9077847224
 C       -10.1714424100       -6.0007077245       -8.1071221436
 C        -8.7381082739       -5.0014660332       -6.2851106449
 C       -11.6968013923       -0.4930434720      -12.3230280995
 C        -9.4196677731       -0.4294506045      -13.5213320396
 C        -9.0147246423        1.0683971550       -7.4451838432
 C        -7.2628417238        2.9757068357       -7.4429001116
 C        -3.4388503591       -1.2598376265       -2.8437150594
 C        -1.2935609119       -1.0512772931       -4.2897659005
 C        -5.0819756739       -6.7358267177       -8.2090165765
 C        -3.0469679334       -6.5427068870       -9.6883404317
 C        -3.5097120091        0.7836372662      -11.8021396297
 C        -3.7436114593       -1.0182306701      -13.5474751402
 C         2.3988458924       -3.4110496179      -11.4582985525
 C         3.4684508535       -1.4418849675      -10.3590028005
 C         7.4863463465        1.7238380628      -13.3140696445
 C         7.1277512453        1.1939927742      -15.7890414300
 C         9.4923873087       -5.3266077005      -15.1711219612
 C        10.3315991659       -4.1813116246      -17.3660341403
 C         1.8702873336       -3.6842942482      -17.3158316160
 C         2.9095808243       -5.0818791811      -19.0990227641
 H         3.0838326725       -2.9055107810      -20.3967055317
 H         4.7915235873       -3.1115441732      -20.4089271257
 H         4.2637821058       -1.4942175703      -20.2319922065
 H         5.8239166997       -4.8412271042      -18.4065183010
 H         5.1119285601       -6.2295440751      -17.5970719516
 H         7.1059802404       -6.3090222237      -16.3696277156
 H         6.7099523356       -4.8559250524      -15.4765646598
 H         9.8589583238       -2.9105408215      -13.6623330659
 H         8.1572858875       -3.2930921381      -13.7207150686
 H         9.4735989348       -0.5149055878      -14.2134628643
 H         8.7313988437       -0.8378718188      -12.6635682056
 H         4.0936420787        1.8572775005      -12.6280689359
 H         4.7896849189        0.2034541487      -12.3521274703
 H         2.6694855542        0.3022634417      -14.3134599285
 H         2.1502554076        0.6015393231      -12.6837005080
 H         0.2159256010       -2.6473387796       -9.5323621059
 H        -0.1426293422       -3.0818889250      -11.0544193543
 H        -1.0627337601       -0.2978204805      -10.4605618940
 H        -1.8931228058       -1.5727780068       -9.5389115931
 H        -5.0673237351       -2.9138067406      -12.9774829473
 H        -6.3317325706       -3.0273255185      -11.8004464131
 H        -3.4442288248       -3.9537160841      -11.0663118133
 H        -4.4544078314       -4.9504955631      -12.0620296453
 H        -3.4639501749       -5.4619011474       -6.3354145335
 H        -4.3715012309       -4.0007295306       -6.5635378196
 H        -2.4045011048       -2.5167252567       -6.7154083771
 H        -1.3388223720       -3.6363519885       -6.0060494047
 H        -4.9403989635        0.6739756126       -4.3484221545
 H        -5.7188983632       -0.7252046277       -5.2439188730
 H        -4.6859657903        1.1856530250       -7.1460771225
 H        -5.7997636087        2.0446724302       -6.0050824932
 H        -7.4133501591        3.3516424895      -10.5028190727
 H        -9.0479064310        3.0921675855       -9.9500358751
 H        -7.9063514648        1.3566797363      -12.3228655847
 H        -8.6526935465        2.9080633479      -12.5207766394
 H       -11.3961915836       -1.4543096777      -10.1297712862
 H       -10.0872072354       -1.1212991736       -9.0728556323
 H        -9.7796943774       -3.8414377149      -10.3034884237
 H       -11.3685968639       -3.5998127659       -9.4101757420
 H       -10.6798357305       -2.3007116176       -5.7080869304
 H       -10.6540629697       -3.5865315705       -4.4956931823
 H       -12.5704719969       -3.1905533036       -3.7536181649
 H       -13.3249693291       -3.5170438080       -5.4077682013
 H       -13.6546144139        2.0495066582       -4.8612375484
 H       -12.4251085586        1.2259070713       -5.5100467920
 H       -11.9216411614        2.9907406742       -2.9214281281
 H       -11.3857448895        3.4170546644       -4.5089966192
 H        -7.0192852022        4.3210563915       -2.0255740412
 H        -7.4029051446        3.2159766686       -0.6402745345
 H        -8.4058536918        4.5083211557       -1.0862101598
 H       -11.2591312944        1.6478200446       -0.8897964671
 H       -10.2212079107        3.1627029462       -0.8257778315
 H        -9.5864510979        1.4592086717       -0.2853071605
 H        -8.4172683631        0.0876085138       -3.1720556657
 H        -9.3659927613       -0.2120596011       -1.6043512815
 H        -7.9710762906        0.5615708376       -1.5471105725
 H       -15.9621007313       -1.0776123377       -4.6287817225
 H       -15.1486952317        0.0966626175       -5.7410424185
 H       -15.7135707307        0.5428994781       -4.1037613249
 H       -13.5370771251       -1.8020008423       -2.1368296592
 H       -14.6225705616       -2.5273475065       -3.2548947994
 H       -15.1735437287       -1.1166929551       -2.3490152993
 H        -9.4640506390       -6.8627354854       -8.0291258616
 H       -10.4506895698       -5.7758228585       -9.1333746267
 H       -11.0527187791       -6.4836170846       -7.7021019576
 H        -8.4702899417       -4.1004524530       -5.6731409850
 H        -7.7681121743       -5.4327953513       -6.7013984953
 H        -9.0191936171       -5.7059923969       -5.5344711481
 H       -12.0593144192       -0.1984864388      -13.2428753889
 H       -12.2196951933        0.0396435624      -11.5599739167
 H       -11.9176428758       -1.5695362837      -12.2254142488
 H        -8.4480581581       -0.1092488315      -13.3709584865
 H        -9.9475628180        0.0544939781      -14.3314855289
 H        -9.3739547596       -1.4834164831      -13.8648007200
 H        -9.7435402195        1.7414906158       -7.7443835323
 H        -9.1151720772        0.8275545017       -6.4441260845
 H        -9.4055481942        0.1580379770       -7.9786502150
 H        -6.2501861012        3.0517805593       -7.7872730100
 H        -7.3007008234        3.0390307500       -6.3194027071
 H        -8.0343616014        3.6029980992       -7.8372026731
 H        -4.1925709950       -2.0878776745       -2.7778726035
 H        -3.9198206026       -0.3772010878       -2.6160782612
 H        -2.5926355737       -1.2004968840       -2.2336322502
 H        -0.6192548266       -1.6603701710       -3.6790072295
 H        -1.1554732504       -0.0956368523       -3.7766036049
 H        -0.8114722153       -0.9954310787       -5.2762313998
 H        -4.4568776425       -7.3848207395       -7.4890455001
 H        -5.5744228457       -7.2764934064       -9.0039252421
 H        -5.9564425279       -6.2765310288       -7.7421304244
 H        -2.1300743173       -6.0794414752       -9.8215934269
 H        -3.2417057760       -6.9309668219      -10.6154680869
 H        -2.8829451360       -7.4408486856       -9.0793527738
 H        -2.6303228661        1.3096148850      -12.1986555813
 H        -3.4161590049        0.9224863668      -10.7266652196
 H        -4.4491765924        1.1268733033      -12.1420275874
 H        -4.7406328843       -1.0371574853      -13.7893199777
 H        -3.2147616932       -1.9521566358      -13.8797855138
 H        -3.4012372686       -0.2009053844      -14.1547548277
 H         1.6650820291       -3.7551379027      -12.2037882466
 H         2.0077748979       -3.8028775067      -10.5006392002
 H         3.3848053383       -3.8915619884      -11.7351529137
 H         4.5601222565       -1.5991191411      -10.5680276598
 H         3.2268087057       -2.0082234082       -9.4111658272
 H         3.2367192779       -0.3566715768      -10.2635009835
 H         6.9316206467        2.6614367689      -13.3277207829
 H         8.4111843324        1.8505350192      -13.7657851483
 H         7.6467332798        1.1900409153      -12.3496962837
 H         8.1404083249        1.4626128978      -15.8395809858
 H         6.4986645436        2.0766146889      -16.1736967339
 H         7.0347353625        0.4421167603      -16.5736053915
 H         9.4064904627       -4.8832918433      -14.2216695454
 H        10.5143395301       -5.7477649083      -15.4119125797
 H         8.7834866098       -6.1653789783      -15.3329915059
 H        10.1594789414       -5.0446318730      -17.9632754734
 H        11.2273814818       -4.2435451398      -16.7657192192
 H        10.2218512382       -3.2703296037      -17.9622383161
 H         1.2307895469       -3.4771747219      -18.1573130381
 H         1.9673484818       -2.8916139822      -16.5308875220
 H         1.4050082122       -4.6034857861      -16.8508224995
 H         3.8314297222       -5.3969042468      -19.5245714167
 H         2.2981499133       -4.5801353223      -19.8057754071
 H         2.4132487148       -5.9441080324      -18.7049006100
 Na        4.1648193149       -1.3364175064      -15.6766743179
 Na       -7.0342122981       -1.9897713134       -9.4348246739
