232

 C         4.0559098369       -2.8239209544      -20.3479102210
 C         3.8376487871       -2.7480119469      -18.8631565761
 O         3.8437371253       -1.6743377401      -18.3111919168
 C         3.4000858591       -4.0295170866      -18.0245262309
 C         4.3287189108       -4.2908619247      -16.8437004334
 O         4.6436432086       -3.3462651342      -16.1398501808
 C         5.0164187928       -5.6608144019      -16.6301345864
 C         6.3650007635       -5.4151105273      -15.8973669116
 C         7.3204407297       -4.6237292944      -16.8204580882
 O         6.8119146110       -3.8756575470      -17.6894936650
 C         8.8258611755       -4.5079474549      -16.4335651150
 C         9.0567930074       -2.8919911548      -16.1709251726
 O         9.2229839241       -2.1742700252      -17.0765888338
 C         8.7078942103       -2.3409382134      -14.7138763302
 C         8.5297254993       -0.8188964542      -14.5998379087
 C         7.1382635203       -0.4127214147      -15.1279678358
 O         6.4423683255       -1.1696385247      -15.8089026191
 C         6.5029462530        1.0812778929      -14.8938624277
 C         4.9807662024        1.1585326300      -14.3369688168
 O         4.1105257286        1.2673343617      -15.1506319504
 C         4.7967279748        1.0680481558      -12.8096109126
 C         3.2897331276        0.9987811796      -12.3645330821
 C         2.8971680324       -0.4284120427      -12.5009411460
 O         3.0224680626       -0.9487429687      -13.6317913375
 C         2.5183867674       -1.3534238034      -11.3809954326
 C         0.8200610351       -1.2891120261      -11.2532361311
 O         0.2600492505       -0.5919919567      -11.9952653435
 C         0.2239452176       -2.2089110121      -10.1476201874
 C        -1.2915001290       -1.8391492448       -9.9422304342
 C        -2.0609585184       -2.0737790815      -11.2705032422
 O        -1.6345467398       -2.8729888641      -12.0993803244
 C        -3.1671424109       -1.0573473328      -11.5945389287
 C        -4.4287467242       -1.5905361104      -10.8782599937
 O        -4.5388204981       -1.4218608709       -9.6824476776
 C        -5.2716454979       -2.6526646142      -11.6135220188
 C        -4.7256633100       -4.0728953394      -11.4485284791
 C        -5.0267728215       -4.5660751747      -10.0170371390
 O        -6.0280221974       -4.2103896122       -9.4171627040
 C        -4.0892842514       -5.6433685406       -9.5335939767
 C        -2.9853848718       -4.9183785069       -8.5795101439
 O        -1.8176161861       -5.3123958535       -8.5994332077
 C        -3.6065656976       -3.9975343935       -7.5356369703
 C        -2.6159331401       -3.1944319699       -6.5982906437
 C        -3.3000145025       -2.5941550775       -5.3998899439
 O        -4.3757169189       -2.9591005873       -4.9549848163
 C        -2.4500623270       -1.2372848733       -4.8458663628
 C        -2.9427745022       -0.1179136470       -5.8893228988
 O        -2.3096571505        0.2242122439       -6.8473874555
 C        -4.2126941379        0.8127193426       -5.5751645196
 C        -4.6962074274        1.6825460674       -6.8095217297
 C        -5.8527037803        0.9569692551       -7.4853203440
 O        -5.9308838516       -0.2439257740       -7.5025017286
 C        -7.0741077425        1.8179658080       -8.1152890909
 C        -7.2779169152        1.3644552149       -9.6413428293
 O        -7.0201158045        0.2809757998      -10.0788557351
 C        -7.9276233678        2.3201180112      -10.5604179060
 C        -8.6715400750        1.6617829513      -11.7470765744
 C        -9.8562433874        0.8760975670      -11.2954071972
 O       -10.4932963053        1.1821410527      -10.3087450781
 C       -10.1385909725       -0.5210557799      -12.0281029845
 C        -9.8154261378       -1.5236343718      -10.7046062312
 O        -8.7251868440       -2.1056296391      -10.7062292027
 C       -10.8123684786       -1.4962526394       -9.5102924327
 C       -10.8834859872       -2.9730658740       -9.0027494670
 C        -9.7784620327       -3.4168814058       -8.0184851474
 O        -8.7924271343       -2.7010117442       -7.8536367046
 C       -10.0818794274       -4.5404722037       -6.9860234776
 C       -11.5216272085       -4.2589475736       -6.3521595462
 O       -12.5495260025       -4.2783894933       -7.0550653544
 C       -11.6308274655       -3.8252262476       -4.9417968274
 C       -13.0160210543       -3.2889724644       -4.5210587265
 C       -13.1452358156       -1.9018925670       -5.1618537860
 O       -12.4640827833       -1.5377923037       -6.0609805083
 C       -14.2794328717       -0.9716626443       -4.4552782469
 C       -13.3962731504       -0.2924496426       -3.3611652349
 O       -13.2366840132       -0.7640576102       -2.2706854527
 C       -12.7404712974        1.0763480494       -3.8073471581
 C       -11.6664964693        1.6037346348       -2.8440634790
 C       -10.1512493792        1.0597523172       -2.8471932074
 O        -9.7426771164        0.3819823027       -3.7303822606
 C        -9.2908519667        1.4926777402       -1.6416228666
 C        -8.7496232466        2.9510111339       -2.2128163711
 O        -7.7263515133        3.1121233234       -2.8329681141
 C        -9.6748526331        4.1575557689       -2.0152132083
 C       -10.0224512622        1.6925956988       -0.3083988239
 C        -8.0946358590        0.4123186040       -1.5314113998
 C       -14.9996909340       -0.0422726476       -5.4847126502
 C       -15.3978116826       -1.8630223264       -3.7964945767
 C       -10.1769632577       -5.9312511329       -7.7043019152
 C        -8.9075479008       -4.5929033260       -6.0267829617
 C       -11.6120480285       -0.5357979927      -12.3987880355
 C        -9.1703876939       -0.9691766619      -13.1757693171
 C        -8.4055968381        1.4433484401       -7.3547877725
 C        -6.7941900831        3.3868546206       -8.1589473538
 C        -2.8608324671       -0.7431658924       -3.4822711696
 C        -0.9769794592       -1.4946725948       -5.0136823006
 C        -4.9842546492       -6.6076461407       -8.7804210542
 C        -3.4011386583       -6.4451346784      -10.6860541762
 C        -2.9187410077        0.3702355511      -11.0811233367
 C        -3.3008248257       -0.9298036909      -13.2265452292
 C         2.9864692805       -2.7688045772      -11.6419066857
 C         3.1582693668       -0.8293752673       -9.9806438202
 C         7.4754312496        1.9392106913      -13.9710924168
 C         6.2770326716        1.8549611827      -16.1441458965
 C         9.2630611960       -5.3969294717      -15.2401165779
 C         9.6102771764       -5.0862143375      -17.7588717646
 C         2.0682691461       -3.5301879493      -17.2997961369
 C         2.9933408641       -5.3603592341      -18.6983708505
 H         3.4429287924       -3.4083033990      -20.9929551158
 H         5.0598997376       -3.2885982912      -20.3461805353
 H         4.0113992678       -1.8333949431      -20.7841953914
 H         5.2179350686       -5.9780290368      -17.6227528110
 H         4.3831374785       -6.4214208991      -16.1848013247
 H         6.9264768852       -6.2283132213      -15.5019116749
 H         6.1597775411       -4.8189153285      -14.9790323460
 H         9.4464349677       -2.6421381606      -13.9611524794
 H         7.7625304693       -2.8882462391      -14.4669090589
 H         9.2526166247       -0.1699151658      -15.1683097499
 H         8.6139857402       -0.5256459107      -13.5818390782
 H         5.3088804540        1.8226789903      -12.2358348219
 H         5.3787463372        0.2356412243      -12.3659954107
 H         2.7279866570        1.4964293003      -13.1991739683
 H         2.9846236917        1.4534498539      -11.4645478031
 H         0.7011619782       -2.1341052871       -9.1716294914
 H         0.1902376578       -3.2906725815      -10.3349411318
 H        -1.4111110996       -0.8196039454       -9.6127350311
 H        -1.7067370753       -2.3577803958       -9.0347627102
 H        -5.3332946330       -2.4518623464      -12.6542786289
 H        -6.2880770305       -2.5971809160      -11.1746344491
 H        -3.6707951582       -4.1371771710      -11.6601387697
 H        -5.1456681291       -4.6879959151      -12.1826439642
 H        -4.2379781927       -4.6295313387       -6.9450917235
 H        -4.2849065709       -3.3319995611       -8.1224961851
 H        -2.0898887588       -2.4323813453       -7.2202736837
 H        -1.8978206584       -3.9208169086       -6.3018927197
 H        -3.8030774916        1.4220903958       -4.7684930828
 H        -5.0848206422        0.2936511861       -5.2345137402
 H        -3.8605593419        1.9373271050       -7.4728192482
 H        -5.1300329462        2.6223748229       -6.4634917814
 H        -7.1819015722        3.0133182290      -10.8943844370
 H        -8.7476131199        2.9016079599       -9.9773229858
 H        -7.9629721639        0.9775081313      -12.2511128822
 H        -8.9112047123        2.3684423714      -12.5284281402
 H       -11.8416772435       -1.1323821980       -9.6805131386
 H       -10.4525459393       -0.9386571808       -8.6574987859
 H       -10.9048330731       -3.6139784664       -9.9234118837
 H       -11.8760364104       -3.2002659873       -8.5601140461
 H       -10.9106605057       -3.0193542358       -4.7896134747
 H       -11.2850479614       -4.6210620927       -4.1988517171
 H       -13.2079523224       -3.1602201339       -3.4430584970
 H       -13.7953519290       -4.0454113482       -4.8248893641
 H       -13.5650200683        1.8013740043       -3.8932893037
 H       -12.3493505228        0.8762990216       -4.7743283379
 H       -12.0988095368        1.2302095857       -1.8667539000
 H       -11.5474099385        2.7079631890       -2.8173760350
 H        -9.1977538483        5.0527838843       -2.3382916696
 H        -9.8125605220        4.3983217909       -0.9596997753
 H       -10.6181617530        4.0769066218       -2.4263881828
 H       -10.2766887480        0.6119766094        0.0437849104
 H       -10.9292072521        2.3432439466       -0.4027475863
 H        -9.2901343443        1.9872822595        0.5134088155
 H        -7.3452883199        0.3866712708       -2.3578926976
 H        -8.5120017009       -0.5766622143       -1.7173430492
 H        -7.6757323709        0.5700484553       -0.5626235191
 H       -15.6434864079       -0.5847797185       -6.2739040550
 H       -14.4229137516        0.7057079501       -6.0084069342
 H       -15.6503565467        0.4416529982       -4.8038066864
 H       -15.1353572314       -2.1430565237       -2.7618104370
 H       -15.7141391597       -2.6574097125       -4.4582709803
 H       -16.2745762670       -1.2570171818       -3.7792810566
 H        -9.1729719133       -6.1986501532       -8.1087832885
 H       -10.9086691080       -5.8968264863       -8.5183207144
 H       -10.4665477480       -6.6406466417       -7.0166278399
 H        -8.6979146080       -5.6320301472       -5.6889517591
 H        -9.0407942203       -3.9677162386       -5.1181876913
 H        -7.9468244158       -4.2895426547       -6.4850206354
 H       -11.8320607020        0.2795453032      -13.0517174836
 H       -12.2058164169       -0.3675052181      -11.4753167368
 H       -11.9575044881       -1.4450249490      -12.8639142315
 H        -8.2393991757       -0.9883930525      -12.7899826040
 H        -9.1376238218       -0.2743009339      -14.0223914007
 H        -9.4153756149       -2.0269934024      -13.3875371139
 H        -9.2779392690        1.6968058044       -7.8543824236
 H        -8.5068452279        1.9745045495       -6.4628066982
 H        -8.3812727967        0.3695692876       -6.9723968977
 H        -5.8889966311        3.8320867336       -8.6156790309
 H        -6.8593285798        3.6443837769       -7.0702128692
 H        -7.7402350277        3.8182997706       -8.5556628273
 H        -3.8878715543       -1.3201684406       -3.2010821281
 H        -2.9626352194        0.2696487063       -3.3468565325
 H        -2.2520921604       -1.2600889159       -2.6861698114
 H        -0.6141412805       -2.4118079093       -4.6283415445
 H        -0.2133373247       -0.7102497066       -4.7396857639
 H        -0.8407958136       -1.6025823737       -6.0851684473
 H        -4.5021693030       -7.5712919279       -8.3565367486
 H        -5.7007200927       -7.0462740514       -9.5250645406
 H        -5.6014148329       -6.0838438074       -8.0628422528
 H        -3.8934767420       -6.3284124924      -11.5763785811
 H        -3.4795600980       -7.4478917656      -10.4210679579
 H        -2.3296161298       -6.1787527166      -10.8382099617
 H        -2.1179313026        0.8592725700      -11.5924385989
 H        -2.8987067490        0.2928820892       -9.9664012499
 H        -3.7310608059        0.9881537219      -11.3007650561
 H        -3.9413978043       -0.1468791573      -13.5151496933
 H        -3.8651993474       -1.7872593974      -13.6927207781
 H        -2.2899323198       -0.8851943495      -13.6469686873
 H         2.8564991135       -3.1952054442      -12.6076782311
 H         2.6096265340       -3.4381575637      -10.8730637124
 H         4.0461272096       -2.7765945308      -11.4750228768
 H         4.2155735433       -0.8219776458      -10.1288618168
 H         3.0183085606       -1.4976325581       -9.1515897529
 H         2.7631705881        0.1787428424       -9.7974592614
 H         7.0563197837        2.9225789299      -13.9597691946
 H         8.4353779386        1.9282339899      -14.4870571302
 H         7.6004144496        1.5626656013      -12.9344324129
 H         7.1782177430        2.1243871923      -16.6961834898
 H         5.9387988030        2.9169309608      -15.8745854142
 H         5.6761798097        1.5014640641      -16.9413184792
 H        10.2867546821       -5.8149599636      -15.2004773404
 H         8.6057991991       -6.3009389334      -15.1844039279
 H         9.1155091114       -4.8825193553      -14.2545285737
 H         9.5076923361       -6.1786652171      -17.8024623066
 H        10.6481382224       -4.7812068480      -17.5917120006
 H         9.2252217958       -4.5390227254      -18.6033637254
 H         1.3422873919       -3.4463670543      -18.1097837805
 H         2.1017653631       -2.5551696218      -16.7024588524
 H         1.8258147022       -4.4453920331      -16.6965514095
 H         3.7771465626       -5.9429123140      -19.1561872516
 H         2.3477215175       -4.9850104817      -19.4374913925
 H         2.3314530844       -5.8740150712      -18.0960431322
 Na        4.0402139601       -1.0705675400      -16.0572453872
 Na       -6.8562222006       -1.9555187152       -8.9772915522
