232

 C         4.2651126497       -2.9381548178      -20.2888051194
 C         3.8009216042       -2.8205224173      -18.8241878702
 O         3.7142345921       -1.7204171676      -18.2795074329
 C         3.2306538794       -4.0535491404      -17.9868508214
 C         4.3653672239       -4.2170371821      -16.8694827797
 O         4.5272444986       -3.3941237349      -15.9807076844
 C         5.0345861250       -5.6108842347      -16.6427088477
 C         6.4349751984       -5.5354544707      -15.9559918930
 C         7.2712974715       -4.5079322562      -16.8034062291
 O         6.7747307319       -3.9213009134      -17.7435929704
 C         8.7902591543       -4.4415607989      -16.4287124321
 C         8.9162604022       -2.9479326975      -16.2145627264
 O         9.2028329838       -2.2071467179      -17.1798761520
 C         8.5656026517       -2.3674946982      -14.8026051029
 C         8.4190011744       -0.8651622012      -14.7767244146
 C         7.0413745009       -0.2931769860      -15.1957466121
 O         6.3693747061       -1.1060668084      -15.8069343294
 C         6.5001869533        1.2192414864      -14.9353680654
 C         5.0287119288        1.1350462630      -14.3902494558
 O         4.0417359175        1.2425273465      -15.0909908704
 C         4.8354483000        1.2067170610      -12.9265119164
 C         3.4177803536        1.0287924435      -12.4363965732
 C         3.0428687233       -0.4632624189      -12.6292624034
 O         3.1536654886       -1.0465604376      -13.6545131759
 C         2.5150456193       -1.2503489697      -11.3346705318
 C         0.9352303671       -1.2546856727      -11.1855175744
 O         0.2460087339       -0.6276609337      -11.9955070506
 C         0.3358772393       -2.1533405067      -10.1781004876
 C        -1.2065902162       -1.9392406481      -10.0283348649
 C        -1.9399984632       -1.9785795007      -11.3153555468
 O        -1.8405446020       -2.9515897839      -12.0526281167
 C        -3.1748442370       -0.9866784620      -11.5719640045
 C        -4.4080662426       -1.6505206871      -10.8845812091
 O        -4.5421046631       -1.4972759201       -9.6462934648
 C        -5.3192044881       -2.5446073252      -11.6569838256
 C        -4.7170645825       -3.9331260203      -11.4516991994
 C        -5.0865574329       -4.5904406928      -10.1143193678
 O        -6.0902997855       -4.2373900977       -9.5230520598
 C        -4.1411991324       -5.7276569485       -9.5738324113
 C        -3.0238539082       -5.0318046146       -8.5279952885
 O        -1.8440556078       -5.1724758455       -8.4303352488
 C        -3.6886655763       -3.9841669859       -7.5569966724
 C        -2.5866492931       -3.3304929945       -6.5814780134
 C        -3.3234442705       -2.4752133999       -5.5135245478
 O        -4.3855205456       -2.8341990427       -5.0683994642
 C        -2.5206067771       -1.2532455585       -5.0233225827
 C        -2.8629847463        0.0515520282       -5.9652612104
 O        -2.1694059627        0.2209424989       -6.9540784982
 C        -4.1138286616        0.8125103829       -5.5166369057
 C        -4.7656515679        1.6506444816       -6.7293197060
 C        -5.8860418965        1.0186745691       -7.5088866392
 O        -5.8456327401       -0.1664162973       -7.6845127861
 C        -7.0946199545        1.8413278591       -8.1503146788
 C        -7.4129204530        1.3745139276       -9.6759670912
 O        -7.1008780689        0.2225142172       -9.9923958701
 C        -7.9845813520        2.4502386303      -10.6654293954
 C        -8.6274257647        1.6911547890      -11.7774018360
 C        -9.7641567872        0.8477592541      -11.2389455778
 O       -10.4465702866        1.2122229375      -10.3064173141
 C       -10.0789095135       -0.5694533701      -11.8121408168
 C        -9.8186434748       -1.5525723023      -10.6366864824
 O        -8.8107601053       -2.1333368158      -10.5515974383
 C       -10.8281889381       -1.5815680156       -9.5663951421
 C       -10.9969915119       -2.9721240867       -8.9751020401
 C        -9.9238839721       -3.3875812561       -7.9275793255
 O        -8.8051039639       -2.8594556851       -7.9554401284
 C       -10.0801089632       -4.6674705302       -6.9486359625
 C       -11.5509520819       -4.3592835435       -6.2974875059
 O       -12.5093089799       -4.4771895437       -7.0398921053
 C       -11.5631679653       -3.7940116952       -4.9027819900
 C       -13.0590173435       -3.2994011245       -4.4876558249
 C       -13.2813885394       -1.9146551236       -5.1239825879
 O       -12.5249881232       -1.4720525504       -5.9593414419
 C       -14.3451845996       -0.9703003834       -4.4760644140
 C       -13.4759430253       -0.2775888341       -3.3585547143
 O       -13.3634816038       -0.7668156224       -2.2373684138
 C       -12.6988717754        0.9617148742       -3.6998968794
 C       -11.7189718134        1.3818086633       -2.6989616724
 C       -10.2145990926        0.9471384427       -2.8141774803
 O        -9.7555416627        0.3407805672       -3.7450584056
 C        -9.2665998292        1.5438713618       -1.6179750128
 C        -8.7836882474        2.9586343914       -2.0922195826
 O        -7.7133892387        3.0866019962       -2.7208213496
 C        -9.7119813933        4.1941163739       -2.0156136400
 C        -9.8371993771        1.7344297909       -0.2252253782
 C        -8.1187659762        0.4565965294       -1.4587335026
 C       -14.8477416490       -0.0073477782       -5.5304063372
 C       -15.5096676111       -1.8874431455       -3.9819123466
 C       -10.0031323182       -5.9755731714       -7.7776584737
 C        -8.9525270964       -4.7061666128       -5.9427599212
 C       -11.5346782767       -0.5411812826      -12.3757478928
 C        -9.1414043412       -0.8901795208      -13.0148097018
 C        -8.2356859621        1.4454361773       -7.3211598065
 C        -6.7355916027        3.3561076698       -8.2206328697
 C        -2.7858155485       -0.8467936154       -3.5094632797
 C        -0.9729103393       -1.3833894938       -5.1500870500
 C        -5.0891871092       -6.7106506197       -8.8175152110
 C        -3.3692771183       -6.6084795994      -10.6433133981
 C        -2.9753357354        0.4949919045      -11.1259971685
 C        -3.1133543999       -0.9356557442      -13.1357488839
 C         2.9502948502       -2.6808915535      -11.6584051045
 C         3.1156297489       -0.7808137643       -9.8642100692
 C         7.5191722688        1.9304201543      -13.9560109604
 C         6.5224333483        1.8786113153      -16.3171336394
 C         9.2562568843       -5.2693375755      -15.2020764945
 C         9.4950820301       -5.0400614782      -17.7235112381
 C         1.9499058560       -3.5299684425      -17.3189162152
 C         3.0497974601       -5.4005229593      -18.8183851380
 H         3.7928368101       -3.7152875332      -20.8332546268
 H         5.3005747785       -3.0880347596      -20.3420445414
 H         3.8797898048       -2.0341615162      -20.8558791469
 H         5.0008874608       -6.2745879384      -17.5108005812
 H         4.2982440102       -5.9882319150      -15.9451031967
 H         7.0496802071       -6.4238238351      -15.9112629422
 H         6.2895539100       -5.2775907645      -14.9116259643
 H         9.3959747533       -2.5575005881      -14.1132454885
 H         7.6885412768       -2.9653359539      -14.4483969228
 H         9.0884947326       -0.3102942283      -15.4665733889
 H         8.7089825002       -0.5589143435      -13.7735519003
 H         5.1810490777        2.2075384153      -12.5436338541
 H         5.4933890896        0.6374917127      -12.2185386793
 H         2.7081103278        1.7176244247      -12.9503106533
 H         3.3691833739        1.2687603996      -11.3003016313
 H         0.7121003342       -2.1075714502       -9.1727669024
 H         0.3985076083       -3.1813505388      -10.5065141645
 H        -1.4624101794       -1.0394585075       -9.4275640050
 H        -1.6026026799       -2.7149687713       -9.3805232390
 H        -5.1607106833       -2.3921957983      -12.7144755907
 H        -6.3090701201       -2.3389505323      -11.2944347064
 H        -3.6712717266       -3.8404221777      -11.6232052482
 H        -4.9918748900       -4.5413685278      -12.2805938735
 H        -4.4303820817       -4.5148217394       -6.9647773797
 H        -4.2548613255       -3.2053158878       -8.1010325997
 H        -1.9409508371       -2.7152935463       -7.2430654929
 H        -2.0016950331       -4.1751929831       -6.2108620756
 H        -3.7022547426        1.4299021919       -4.6997834977
 H        -4.7648565043        0.1109440743       -5.0655120024
 H        -3.9288959833        1.7849592247       -7.4196479431
 H        -5.0686702543        2.7472746608       -6.4431728112
 H        -7.2329462913        3.1797860486      -10.9774163208
 H        -8.8195642296        2.9078276067      -10.1482971470
 H        -7.8590680322        1.1940010452      -12.3149047756
 H        -9.1489142235        2.3330129887      -12.4803164937
 H       -11.7771129013       -1.1805928073       -9.7070497181
 H       -10.3817140663       -1.0067022691       -8.7275139452
 H       -11.0455598331       -3.6919247818       -9.7405112127
 H       -11.9913747875       -3.0104808556       -8.5570512279
 H       -10.7544217575       -3.0315950505       -4.7732163712
 H       -11.2493028713       -4.6205682542       -4.1886675084
 H       -13.4011363532       -3.2920927197       -3.4009468722
 H       -13.7117159929       -4.0595369512       -4.9187457820
 H       -13.4151551288        1.7897652389       -3.7949271881
 H       -12.2112385478        0.7419676284       -4.6150261107
 H       -12.1711629669        1.2131466131       -1.7103961007
 H       -11.5158143442        2.4520325270       -2.8386409515
 H        -9.0651398190        5.0416168932       -2.3060395085
 H       -10.1043717201        4.5605026820       -1.0812996866
 H       -10.5693531278        4.0964118290       -2.6948928281
 H       -10.2946870792        0.7603578825        0.0771872486
 H       -10.5764826328        2.5671746610       -0.2229669390
 H        -9.0059302314        1.7919676478        0.5800031253
 H        -7.4691901851        0.4441308364       -2.3278995499
 H        -8.5174480216       -0.5583585171       -1.5074494791
 H        -7.6317138102        0.6739046592       -0.5263521725
 H       -15.4517843473       -0.5644908630       -6.3084229136
 H       -14.0679931025        0.5057732833       -6.0310516918
 H       -15.5110815147        0.7384563309       -5.0166462372
 H       -15.1420364459       -2.2946064266       -2.9918904626
 H       -15.8592121591       -2.6156118068       -4.7522406120
 H       -16.4284632222       -1.2233730138       -3.7832598188
 H        -9.0789571168       -5.8475441976       -8.4101560526
 H       -10.8811537472       -6.1290166478       -8.4242248594
 H        -9.7825279280       -6.8686216827       -7.1156586937
 H        -9.0928248943       -5.5251982659       -5.1853517684
 H        -8.8210843876       -3.7147005477       -5.3674863581
 H        -7.9998631853       -4.9563866333       -6.3436684604
 H       -11.5442875320        0.2823444612      -13.0129789859
 H       -12.2981192870       -0.4261283442      -11.6738553810
 H       -11.7565810549       -1.4322923026      -13.0026713397
 H        -8.1058821396       -1.1803251246      -12.6885261776
 H        -9.0579142988        0.0186128445      -13.5786556809
 H        -9.5871195975       -1.7285790016      -13.5634389621
 H        -9.1521044821        1.9450758320       -7.6331780085
 H        -8.1255434004        1.7672091815       -6.3004132969
 H        -8.2982947696        0.4016636740       -7.1746754421
 H        -5.6802105223        3.5577081797       -8.6077133148
 H        -6.7628386422        3.7105001165       -7.1146377042
 H        -7.5407648107        3.9182975978       -8.7525364504
 H        -3.8640072179       -0.8080675745       -3.1646746808
 H        -2.2620220772        0.1100147155       -3.2494216018
 H        -2.4695390986       -1.6674645493       -2.8933217956
 H        -0.8156735828       -2.3800833499       -4.6841944174
 H        -0.3508984788       -0.7121332422       -4.5632945616
 H        -0.4558915280       -1.5001042228       -6.1323933191
 H        -4.4809301632       -7.4016137436       -8.2633431186
 H        -5.6438250245       -7.3346082956       -9.4780328774
 H        -5.8612090645       -6.2072830060       -8.1846372195
 H        -3.6426095526       -6.2746838854      -11.6593400507
 H        -3.6212414769       -7.6416464397      -10.5320031344
 H        -2.3121482956       -6.4495145758      -10.5111594002
 H        -1.9640597038        0.7722359522      -11.4735750085
 H        -3.0372334762        0.3786671182      -10.0905310562
 H        -3.5808081335        1.2813801019      -11.4898197092
 H        -3.8847466678       -0.3353682769      -13.4975333336
 H        -3.3602192809       -1.8828535117      -13.5978716202
 H        -2.1284293950       -0.6240188903      -13.4244656849
 H         2.6137078043       -3.0496580066      -12.6414953369
 H         2.6571807268       -3.4407067647      -10.9134542267
 H         4.0890637074       -2.7107438123      -11.7192495686
 H         4.2076588789       -0.7425179289      -10.0848445554
 H         3.1022251992       -1.6252788628       -9.1479180654
 H         2.7238634239        0.1661671006       -9.4834283494
 H         6.9878673471        2.7471955362      -13.4284617672
 H         8.3174409847        2.2943667266      -14.5095463292
 H         7.9064857267        1.1918956693      -13.1952765250
 H         7.3833179609        1.7733736069      -16.9276871826
 H         6.4061906718        2.9706557689      -16.2515590418
 H         5.7608952897        1.5533050973      -17.0529594321
 H        10.0831596021       -5.8889600649      -15.3700823148
 H         8.5515507080       -5.9043983355      -14.5226732713
 H         9.6552005423       -4.5063210512      -14.4738099134
 H         9.2557834540       -6.2034291828      -17.7987284303
 H        10.5099699468       -4.8337117084      -17.6025774280
 H         9.1291204923       -4.4568260756      -18.5349038903
 H         1.2556352212       -3.3833954443      -18.0728929137
 H         2.1054812013       -2.5786907962      -16.7843436640
 H         1.6542230169       -4.3502531654      -16.6541891206
 H         3.9541918275       -5.6826065681      -19.3106671029
 H         2.3268011949       -5.1763382652      -19.5683780247
 H         2.5979746443       -6.2168461795      -18.2599478025
 Na        4.1322856305       -0.8902258133      -16.0146795489
 Na       -6.8647381028       -1.8804075541       -8.8665718223
