232

 C         4.5624260671       -3.0014242444      -20.0143423923
 C         3.8712651512       -2.7399236215      -18.6828977543
 O         3.6637256427       -1.6252933614      -18.2905852278
 C         3.2225328611       -3.9967064907      -17.8903970846
 C         4.1249497492       -4.2652672587      -16.7007994342
 O         4.2625056672       -3.4086277543      -15.8431539003
 C         4.7750115714       -5.6760477359      -16.5556024289
 C         6.2311329439       -5.7197100262      -16.0256990106
 C         7.1331516923       -4.7153048546      -16.8030083786
 O         6.6271754158       -4.0847432028      -17.7472331129
 C         8.7183273930       -4.4261356934      -16.5254889545
 C         8.8835416817       -2.7636124904      -16.3485350244
 O         9.2406731318       -2.1117628244      -17.2467884728
 C         8.4058095035       -2.1552301453      -14.9824483424
 C         8.3665357472       -0.6366944247      -15.0631797194
 C         6.9536937514       -0.2135316350      -15.3097321757
 O         6.1897832054       -1.0098521193      -15.8259268546
 C         6.6428898283        1.3479920458      -14.9565901187
 C         5.2271263319        1.3392765479      -14.4595694705
 O         4.2669780257        1.1830636724      -15.2105966491
 C         4.9281629178        1.5391197740      -12.9983697663
 C         3.5326089076        1.0132951686      -12.4899065868
 C         3.2877274698       -0.4872438208      -12.6118958451
 O         3.3867181137       -1.0440008217      -13.7192819021
 C         2.6002572823       -1.3309717238      -11.3775955461
 C         0.9678693954       -1.2608677894      -11.3613252625
 O         0.3363699323       -0.4828218702      -11.9657264396
 C         0.3929036497       -2.1936920965      -10.2228576045
 C        -1.1115374888       -1.8583440040       -9.9022445468
 C        -1.9679973387       -2.0136287279      -11.2142785524
 O        -1.8193284684       -3.0494257138      -11.8517454909
 C        -3.0874041427       -0.9308849682      -11.6220558754
 C        -4.2760875860       -1.6387397577      -10.9713296321
 O        -4.4656686479       -1.4303870585       -9.8105804111
 C        -5.1715328543       -2.6167935427      -11.7898190165
 C        -4.8519353991       -4.1282039339      -11.6034960946
 C        -5.1441418015       -4.6454585615      -10.2469355641
 O        -6.0307881005       -4.1449735840       -9.5587253740
 C        -4.2517660166       -5.7642958846       -9.6063430370
 C        -3.3675080299       -4.9187032213       -8.6075277917
 O        -2.1699056991       -5.2355880478       -8.5444381348
 C        -3.8890955516       -4.0191271729       -7.5361172389
 C        -2.8123496051       -3.4554515778       -6.6086600630
 C        -3.2547344142       -2.4021165184       -5.6249214286
 O        -4.4210323767       -2.3361048086       -5.2691354021
 C        -2.2816545721       -1.1827531428       -5.0871708872
 C        -2.7689753175        0.0303601501       -6.1202543041
 O        -2.2486819453        0.3931398316       -7.1439069057
 C        -4.1462241231        0.8082632444       -5.6696702299
 C        -4.7192597321        1.7327925176       -6.7042003302
 C        -5.7583452876        1.0245884644       -7.6040914861
 O        -5.6209939519       -0.1884861750       -7.6334823594
 C        -6.8686867021        1.9146258175       -8.2706968770
 C        -7.3406573139        1.4305768102       -9.6096463491
 O        -7.4255780369        0.2800463818       -9.9363548161
 C        -7.8477226517        2.5312722104      -10.5698650757
 C        -8.6086572247        1.8636713748      -11.7708845792
 C        -9.7136240846        0.9134439500      -11.1619581525
 O       -10.4120040229        1.2774777536      -10.2503400474
 C        -9.9860812110       -0.5420923765      -11.8084221330
 C        -9.8301582992       -1.5840320201      -10.6442940380
 O        -8.7540669582       -2.2658371398      -10.5238957754
 C       -10.8341597181       -1.7036058701       -9.5609530427
 C       -10.9899382185       -3.1046257606       -8.7291915875
 C        -9.8125234515       -3.4780362890       -7.8332759780
 O        -8.7429284848       -2.9319478974       -7.8822949551
 C       -10.0897357491       -4.7548003326       -6.8762851192
 C       -11.5619912094       -4.6134727857       -6.2262282931
 O       -12.5469278413       -5.1130286234       -6.7976967986
 C       -11.6623518197       -3.9437468410       -4.8617719363
 C       -12.9938992631       -3.3293685171       -4.5568064046
 C       -13.2154212021       -1.9465873545       -5.1634646445
 O       -12.4412106457       -1.4973595587       -5.9911517862
 C       -14.2943180557       -1.0317684851       -4.5648905583
 C       -13.6216459288       -0.4059437446       -3.3118148927
 O       -13.8091127793       -0.8494394773       -2.2314328464
 C       -12.6264380172        0.6374612164       -3.6024270752
 C       -11.8884074439        1.1565390515       -2.2614763718
 C       -10.3642690187        1.0157245070       -2.5290682376
 O        -9.9624927690        0.4088186756       -3.4908530427
 C        -9.2345510019        1.5760888024       -1.5906562800
 C        -8.6720242775        2.9622443977       -2.0446850135
 O        -7.6052552149        2.9943591721       -2.5734031443
 C        -9.5647819978        4.1359701846       -2.0372999809
 C        -9.9708908247        1.6223961056       -0.1656166007
 C        -7.9502681772        0.6687710665       -1.5603477539
 C       -14.7882350733        0.0888564666       -5.5995089400
 C       -15.6103674527       -1.6496218205       -4.0432761220
 C       -10.1250679758       -5.9389923839       -7.8577976491
 C        -8.9682678721       -4.7088517774       -5.8128804670
 C       -11.4364284697       -0.6080422093      -12.2715823247
 C        -9.0387716202       -1.0155357852      -12.8803356902
 C        -8.1451549361        1.6509047919       -7.2727626287
 C        -6.6232667450        3.4202957582       -8.0450133135
 C        -2.7892669142       -1.0623657256       -3.7149378888
 C        -0.8247815709       -1.4093269793       -5.3498207841
 C        -5.0982424492       -6.7453203073       -8.6759010023
 C        -3.3275783929       -6.5631503306      -10.4922586995
 C        -2.7486603083        0.4433000879      -10.9269512720
 C        -3.2527913520       -0.7347188394      -13.1699671836
 C         3.0185189033       -2.8571731560      -11.4899053659
 C         3.2048577775       -0.6386771163      -10.0471445684
 C         7.7231517974        2.0397193942      -14.0766133790
 C         6.8632115445        1.8587968540      -16.4320177569
 C         9.1940119105       -5.0722726374      -15.1857020845
 C         9.5706127162       -4.7902574620      -17.7659453067
 C         1.6777959662       -3.8160766827      -17.3056783737
 C         3.0454578322       -5.2748592549      -18.8645252649
 H         4.1170146781       -3.8923891396      -20.4961376218
 H         5.6832168385       -3.1450939088      -19.8207845027
 H         4.3760494182       -2.2218389265      -20.7033662792
 H         4.8781505901       -6.1758267554      -17.5493652809
 H         4.1259603101       -6.3796441981      -15.9424312578
 H         6.6187204429       -6.7607292917      -16.0739707218
 H         6.3384037636       -5.4246153448      -14.9592069934
 H         9.1546858008       -2.4063584467      -14.2314816860
 H         7.4855653565       -2.6443103219      -14.7335363459
 H         8.9132156009       -0.2225706957      -15.9175726246
 H         8.7532468694       -0.1922551482      -14.1354959815
 H         4.9600284039        2.5938875767      -12.7611697211
 H         5.6704589433        1.2133402444      -12.3014244377
 H         2.7977888442        1.4876125668      -13.1517806497
 H         3.3005439451        1.2847330877      -11.5294955555
 H         0.8321632122       -1.9903732414       -9.2334479957
 H         0.3836401881       -3.2855633494      -10.4490820257
 H        -1.1596915569       -0.9291060809       -9.3784276704
 H        -1.5397920090       -2.5971587698       -9.1948853232
 H        -5.1236519606       -2.4218193814      -12.8765649773
 H        -6.1311665103       -2.3626242026      -11.2665401145
 H        -3.8084466344       -4.3790853713      -11.9740575495
 H        -5.5300395322       -4.7191830752      -12.3153925526
 H        -4.5683547236       -4.6609968961       -6.9467608383
 H        -4.5184624031       -3.2219499475       -7.9425570962
 H        -1.9647691380       -3.1691101184       -7.2268291600
 H        -2.5258040946       -4.3071441152       -5.9612271258
 H        -3.9661410903        1.3481521134       -4.7327950200
 H        -4.9612750068        0.0647659108       -5.3875025908
 H        -3.8778494740        2.1054934273       -7.3543670063
 H        -5.0499184297        2.6038413564       -6.2354030155
 H        -6.9765662616        3.0699067321      -10.9192026948
 H        -8.5769019342        3.2004088925      -10.0639261778
 H        -7.7690893585        1.2575299144      -12.2117445887
 H        -9.0476108880        2.5804864272      -12.5110949495
 H       -11.8980466862       -1.4406617003       -9.8462899130
 H       -10.5073117071       -0.9554293686       -8.8547918126
 H       -11.3321287966       -3.9349925719       -9.4053340850
 H       -11.9028343682       -3.0265935059       -8.1245384491
 H       -10.9337402058       -3.1814504841       -4.7042224206
 H       -11.5281012131       -4.6010200687       -4.0430902128
 H       -13.0745337507       -3.3658962770       -3.4996226476
 H       -13.8553506047       -3.9555487022       -4.8235328870
 H       -13.1054248903        1.5215847312       -4.0478906954
 H       -11.9032976745        0.1085855646       -4.3286338026
 H       -12.1789418817        0.4934986080       -1.4647652150
 H       -12.1367739131        2.1820524734       -1.9697179049
 H        -9.0321699020        5.0930868072       -2.0936034667
 H       -10.2820640926        4.2473355397       -1.1760447234
 H       -10.2446728851        3.9698290162       -2.8838747356
 H       -10.1506804285        0.6873401994        0.2552847650
 H       -10.8214621935        2.1690286284       -0.3082122573
 H        -9.3646138089        2.0616524150        0.5274534452
 H        -7.8524411857        0.3830140523       -2.6295771781
 H        -8.0792346432       -0.2546558812       -0.9403122565
 H        -7.0907066828        1.2235915673       -1.1761167209
 H       -15.4970252419       -0.3937371106       -6.2752013593
 H       -13.8854917749        0.3689572648       -6.1935397642
 H       -15.2282914377        0.9664532668       -5.2188931663
 H       -15.3575596693       -2.4552566485       -3.3607978116
 H       -16.1185569771       -2.0139756327       -4.9433087151
 H       -16.2616374088       -0.9590116753       -3.5404321321
 H        -9.4355612857       -5.7683642093       -8.7005125092
 H       -11.1828657831       -6.0336404229       -8.2165974483
 H        -9.7707246415       -6.8290889211       -7.4257116975
 H        -9.1534438210       -5.0160356333       -4.8068496670
 H        -8.4830312968       -3.7845220953       -5.8671726461
 H        -8.1837884980       -5.4074869498       -6.1976335587
 H       -11.6069954611       -0.1789181324      -13.2837447249
 H       -12.1178191087       -0.0933655256      -11.5352149270
 H       -11.7111985983       -1.6283613982      -12.2786865368
 H        -8.0636319829       -0.9569049746      -12.5060739761
 H        -9.1168318950       -0.3887234075      -13.8231854895
 H        -9.3067483424       -2.0703234737      -13.1104410909
 H        -8.8592843062        2.4688755537       -7.3526831799
 H        -7.8930130481        1.5137917037       -6.1925948505
 H        -8.5740180686        0.5887990429       -7.4137781321
 H        -5.7434499635        3.6632697734       -8.6154526883
 H        -6.3694673220        3.6435142061       -7.0579321734
 H        -7.5097101273        4.0050943661       -8.2997013019
 H        -3.7746666043       -0.4935231410       -3.6367035677
 H        -2.1677062679       -0.6353385992       -3.0464072242
 H        -2.9705265743       -2.0904978416       -3.3762679486
 H        -0.3094529916       -2.2782062929       -4.9699732976
 H        -0.2301685389       -0.5753422199       -4.9232928258
 H        -0.6464478287       -1.4182789712       -6.4282297282
 H        -4.4017047921       -7.2945801318       -8.0177124433
 H        -5.7875585453       -7.4362544645       -9.1544318808
 H        -5.7532065438       -6.1911950321       -8.1119218393
 H        -3.0949963820       -6.0216849611      -11.4045813512
 H        -3.6811872500       -7.5979902285      -10.7186318154
 H        -2.3932599140       -6.6368210727       -9.8305825258
 H        -1.7522456582        0.7606550077      -11.1935118873
 H        -2.9852791524        0.4266926170       -9.8013118454
 H        -3.3648495270        1.1662147936      -11.4834683714
 H        -4.2675940213       -0.5317791064      -13.5362206175
 H        -2.9220130550       -1.6674046984      -13.6581365783
 H        -2.5215536886        0.0009355041      -13.4851429768
 H         2.3113483054       -3.4768682032      -12.0812620568
 H         3.0513086090       -3.3574661091      -10.4968098436
 H         3.9971695035       -2.9928921164      -11.9173949891
 H         4.2507763994       -0.3711560849      -10.1251845590
 H         3.0941806324       -1.3029028325       -9.2002957814
 H         2.5768681652        0.2685702521       -9.9254828003
 H         7.5670473510        3.1192718624      -14.0107668783
 H         8.7948698021        1.8296389956      -14.4081031943
 H         7.6330786028        1.5711344252      -13.1115442846
 H         7.7881984866        1.4781867085      -16.8732382952
 H         6.8385448468        2.9381470517      -16.6112683459
 H         6.2104733774        1.4884325348      -17.1549576773
 H         8.9067952042       -6.1563124052      -15.0613776281
 H         8.9845124477       -4.5133453197      -14.2985622379
 H        10.2644986498       -5.0834783650      -15.0613598649
 H         9.3612054939       -5.7610397016      -18.0703803278
 H        10.6092082585       -4.6294873387      -17.3851322153
 H         9.3967235728       -4.0516931838      -18.5592006274
 H         0.9731896836       -3.5721747832      -18.0942460705
 H         1.7197657684       -2.9637508140      -16.6445500684
 H         1.3812290832       -4.6999807381      -16.8047333906
 H         4.0326162658       -5.7842209370      -19.1773267270
 H         2.3971459626       -5.0864555004      -19.7744988934
 H         2.5803136267       -6.0496039923      -18.2082568901
 Na        3.8531778245       -1.0106013242      -16.1152938662
 Na       -6.9526463228       -1.9193843589       -8.9102714723
