232

 C         4.6718172489       -2.8729579753      -19.7826875746
 C         3.8469198765       -2.8099177021      -18.5710736559
 O         3.4902224015       -1.6986359011      -18.1957359323
 C         3.2045582147       -4.0987530329      -17.9030321614
 C         3.9741734661       -4.4334477305      -16.5872102844
 O         4.0552717957       -3.5962548774      -15.7342999867
 C         4.6779308174       -5.6956514723      -16.4381713161
 C         6.1073875824       -5.3456586156      -15.8382007985
 C         7.0687982991       -4.6395185675      -16.8528152418
 O         6.5869166368       -4.2917278291      -17.8934170781
 C         8.5596375837       -4.3945893156      -16.5622636892
 C         8.8027925620       -2.8852725950      -16.4516261142
 O         9.1088384599       -2.2081803346      -17.3633348157
 C         8.5014631698       -2.0639270753      -15.0065189237
 C         8.4454543341       -0.5473434078      -15.0323923890
 C         7.0090265385       -0.0625004870      -15.3415686301
 O         6.1418818218       -0.8632706403      -15.5671398618
 C         6.6769904465        1.5782782053      -15.2470471722
 C         5.2088255540        1.4662689829      -14.7122562995
 O         4.3209492295        1.2553284522      -15.5784215975
 C         4.8677650208        1.4503802503      -13.2228137603
 C         3.4119430673        1.0014337685      -13.0843755891
 C         3.3974979552       -0.5280243861      -12.7036710331
 O         3.5632705874       -1.2735724293      -13.6598041212
 C         2.9932509170       -1.1632100488      -11.3843664211
 C         1.4392847697       -1.1192213131      -11.3418310442
 O         0.7965555948       -0.2960996131      -11.9192805238
 C         0.7477444303       -2.1522182805      -10.5233210642
 C        -0.7211018185       -1.7466724254      -10.0928548415
 C        -1.8096820105       -1.9844325491      -11.2399793472
 O        -1.7020330552       -2.9658460929      -11.9330834785
 C        -2.9980875248       -0.9950564408      -11.5368967909
 C        -4.3859917231       -1.7030334374      -11.1230116142
 O        -4.7874736794       -1.5832717159      -10.0048272289
 C        -5.2810492726       -2.6733091653      -12.1106407723
 C        -4.8904756586       -4.1069300971      -11.6168393006
 C        -5.2965813904       -4.5314407595      -10.1991081978
 O        -6.1482323830       -4.0211658849       -9.4762554260
 C        -4.4390095110       -5.7115495972       -9.5221454484
 C        -3.3848953020       -4.9808462293       -8.5680242407
 O        -2.1753532108       -5.1071930696       -8.8329923923
 C        -3.9885141145       -4.1684395676       -7.4411622044
 C        -2.9228904070       -3.4641778127       -6.5580160906
 C        -3.4400389384       -2.2237906586       -5.7694260112
 O        -4.6124021729       -1.8963114717       -5.6811494680
 C        -2.3205409885       -1.1995310475       -5.2970955446
 C        -2.7494234179        0.1174551921       -6.1542936780
 O        -2.1793597243        0.3439453344       -7.1916301365
 C        -4.0113678937        0.9055055631       -5.6661832362
 C        -4.6972224646        1.8467630332       -6.7439739380
 C        -5.7073669213        1.0594278039       -7.5267017608
 O        -5.7815128374       -0.1499960083       -7.6532860455
 C        -6.9263358729        1.9440697672       -8.0737283557
 C        -7.3718292033        1.4673944549       -9.4674658335
 O        -7.5704880952        0.3054428600       -9.6984208111
 C        -7.8208314460        2.5373840864      -10.5217005132
 C        -8.5219361119        1.7663646245      -11.7591561338
 C        -9.6598036840        0.8405808023      -11.0659659999
 O       -10.3941642962        1.2269735141      -10.1613447583
 C        -9.8923895169       -0.6494560066      -11.7305514709
 C        -9.7190358225       -1.6091139277      -10.5550544753
 O        -8.7876440404       -2.4638502348      -10.5861749299
 C       -10.5605522363       -1.6274212832       -9.2833555880
 C       -10.9592107860       -3.0625457336       -8.6444333923
 C        -9.7866093319       -3.4856622054       -7.6025545429
 O        -8.7682413903       -2.8480102841       -7.4574926986
 C       -10.0556149481       -4.8477067536       -6.8222468425
 C       -11.5171445765       -4.8899690568       -6.0016012920
 O       -12.3890986089       -5.6905793837       -6.3054620700
 C       -11.6207496334       -3.9681288224       -4.7237629422
 C       -13.1288479280       -3.4539183468       -4.6798290518
 C       -13.2511481206       -2.0647732494       -5.1984287630
 O       -12.6145293352       -1.6626270843       -6.1634190732
 C       -14.3371023629       -1.0232977801       -4.5864876294
 C       -13.8099555437       -0.4934054802       -3.2246586279
 O       -14.2587418422       -0.8311924844       -2.1803519771
 C       -12.7498319895        0.6773689262       -3.3384812467
 C       -11.8060536437        0.6901271702       -2.1078555226
 C       -10.2691896589        0.8901876094       -2.3686147195
 O        -9.8583413290        0.5632853302       -3.4846874378
 C        -9.1957065103        1.5235176696       -1.3353833782
 C        -8.6975272206        2.8989214789       -1.9851058641
 O        -7.5981440907        2.9701109656       -2.4048336580
 C        -9.7515972462        3.9744900787       -1.9475976718
 C        -9.6706417592        1.9349230582        0.1087364907
 C        -7.9632339695        0.5170397250       -1.2898614417
 C       -14.4378324817        0.1155597517       -5.6335751099
 C       -15.6675750703       -1.8421924190       -4.5803750696
 C       -10.1672227562       -5.9501850839       -7.9418453176
 C        -8.9537631551       -5.1209793360       -5.7374084884
 C       -11.3361080199       -0.6688571551      -12.2793050002
 C        -8.9128621308       -0.9243643245      -12.8760178054
 C        -8.0630190654        1.8754108852       -7.0441859686
 C        -6.4409089580        3.4471008627       -8.1372523822
 C        -2.2074520635       -0.8791196462       -3.7876972209
 C        -0.9601261518       -1.6934624701       -5.7967581824
 C        -5.4457570061       -6.5399495544       -8.6499824704
 C        -3.6399591828       -6.6029198237      -10.5481257312
 C        -3.0536216774        0.3251795941      -10.6841123400
 C        -2.8657597072       -0.8273489175      -13.0666754404
 C         3.4379870730       -2.7154117304      -11.5105608964
 C         3.5364020102       -0.4740452344      -10.0918464444
 C         7.5429762118        2.2887252262      -14.1845264467
 C         6.7187252130        2.3622224884      -16.5231492985
 C         9.0904307580       -5.2159994072      -15.3902873578
 C         9.2666182422       -4.8699151282      -18.0166440054
 C         1.7360442080       -3.6363684131      -17.4326518050
 C         3.1027081181       -5.1722680768      -18.9308352955
 H         3.9146979220       -2.7630465580      -20.5634863878
 H         5.2928111558       -3.7844097029      -19.8378586468
 H         5.3019632826       -2.0783303414      -19.8940935116
 H         4.7274204462       -6.3791311376      -17.2826686460
 H         4.2331303638       -6.2469406671      -15.6332170003
 H         6.5493113754       -6.2897400452      -15.4359346513
 H         5.9325985379       -4.6825657049      -15.0303032304
 H         9.3628014159       -2.3802828387      -14.3669386467
 H         7.5881504887       -2.4816335584      -14.5988182999
 H         9.1615987041       -0.1011043776      -15.6904878001
 H         8.5784268814       -0.1629812518      -13.9665842458
 H         5.0877337034        2.4354632813      -12.6874082061
 H         5.4353705811        0.6641509076      -12.6644778005
 H         2.9413865252        1.1033686853      -14.1316799307
 H         2.7650837428        1.5463008676      -12.3530335306
 H         1.2277581512       -2.2705770246       -9.5649810138
 H         0.5562335623       -3.0655566705      -11.0552483015
 H        -0.7115518841       -0.7345909134       -9.6637042058
 H        -1.1155683860       -2.4776596160       -9.3810385404
 H        -4.9519290352       -2.4418393098      -13.1271478021
 H        -6.3255051602       -2.5970722632      -11.9220501867
 H        -3.8372207133       -4.1836156048      -11.5148002281
 H        -5.2111840782       -4.8557499054      -12.3164959952
 H        -4.7289147569       -4.7366509853       -6.8161013041
 H        -4.5509033809       -3.3851192709       -7.9062086084
 H        -2.2378319635       -3.0742132367       -7.2699724923
 H        -2.4073257107       -4.1924238550       -5.8692122586
 H        -3.6666892993        1.5211658476       -4.8742171428
 H        -4.6407453992        0.2260717533       -5.0930419888
 H        -3.9364702767        2.2745815364       -7.4749250044
 H        -5.0694087960        2.7350605354       -6.2506665276
 H        -6.8605875880        2.9018742209      -10.9476623430
 H        -8.4361330529        3.3030918315      -10.2088516261
 H        -7.7168249869        1.2006435693      -12.1346052496
 H        -8.9235100682        2.4944731130      -12.4302576592
 H       -11.4839341582       -1.0813801031       -9.4008184808
 H       -10.0413421721       -1.2000830438       -8.4515033451
 H       -11.0718489712       -3.7594840007       -9.4360722132
 H       -11.9487535918       -3.0507171790       -8.2537533637
 H       -10.9531246544       -3.0342547643       -4.7008655466
 H       -11.3624029622       -4.5751250614       -3.8312524403
 H       -13.6147078500       -3.4354428567       -3.6820512450
 H       -13.7295208881       -4.2288134811       -5.2111968225
 H       -13.2730815500        1.6015548786       -3.4166840667
 H       -12.0328954213        0.4663800133       -4.1383014091
 H       -11.9168934194       -0.2670121028       -1.5651119808
 H       -12.2002015783        1.4207149759       -1.3780129192
 H        -9.3585545337        4.9503653989       -2.1449576496
 H       -10.4359728895        3.9310320828       -1.1088994699
 H       -10.4543721238        3.7648978192       -2.7787398053
 H       -10.1625688247        1.0141542521        0.6348733854
 H       -10.4320730173        2.7894669199        0.0939103891
 H        -8.7464774363        2.2246972489        0.6946434547
 H        -7.5866856661        0.2941087714       -2.2601862289
 H        -8.2519091162       -0.2962584118       -0.6372884853
 H        -7.1675640294        0.9922132855       -0.6945123940
 H       -14.7553605500       -0.2341235690       -6.5618321827
 H       -13.4338153314        0.6443561301       -5.6546891292
 H       -15.1434214038        0.9116330873       -5.3519109593
 H       -15.6903178787       -2.6200679842       -3.7710228920
 H       -15.7957666787       -2.3916637759       -5.5936580803
 H       -16.3577589387       -1.0354609340       -4.2897094690
 H        -9.2089327538       -6.3767086649       -8.1804655677
 H       -10.7585641448       -5.5024307943       -8.7873924303
 H       -10.7291231949       -6.7976920503       -7.5237869914
 H        -8.9288171812       -6.2225986453       -5.6054312304
 H        -9.3597735915       -4.7540525887       -4.8029517555
 H        -7.9069939220       -4.6319844420       -5.8521393439
 H       -11.4354603578        0.0843181353      -13.0822845503
 H       -12.0000830398       -0.3613308357      -11.4860806445
 H       -11.6276864544       -1.5920369822      -12.6414377673
 H        -7.8992170346       -1.0212570915      -12.4570280151
 H        -8.9367528312       -0.1374397203      -13.6466395303
 H        -9.2394788829       -1.7778069268      -13.4233300774
 H        -8.9948707882        2.0902267615       -7.5247968756
 H        -7.9092063049        2.5380007999       -6.1914261720
 H        -8.1353380136        0.8727077208       -6.5928471704
 H        -5.4297232587        3.6418929584       -8.6499812218
 H        -6.3535647774        3.9071535425       -7.1338475219
 H        -7.2870329170        4.0937310674       -8.5391470024
 H        -3.1688176395       -1.1425579702       -3.2704235040
 H        -2.1860822056        0.1437167516       -3.6278447879
 H        -1.2618115167       -1.1719721909       -3.2934256897
 H        -0.6646677909       -2.7627639353       -5.6982762278
 H        -0.0825814737       -1.1328425603       -5.5000837527
 H        -1.0912610877       -1.5090599268       -6.8709963582
 H        -4.9590830934       -7.2573083882       -7.9936370352
 H        -6.1650801931       -7.0407323785       -9.3361711445
 H        -6.1278946254       -5.9353863799       -8.0806039807
 H        -2.6095306563       -6.4181555435      -10.6560238633
 H        -4.0678095905       -6.3745841596      -11.5165542498
 H        -3.9951433728       -7.5968135313      -10.3465395816
 H        -2.2412199363        0.8945301748      -11.0000748982
 H        -2.9781367313        0.2108762039       -9.6100742211
 H        -4.0227321255        0.7628401036      -11.0198917226
 H        -3.6463676280       -0.0747627191      -13.3927704067
 H        -2.9622887186       -1.7440449406      -13.5752573019
 H        -1.9178196304       -0.4454338576      -13.3843925171
 H         3.1216771510       -3.1004589851      -12.4985240868
 H         3.0053899573       -3.3785665007      -10.7500408901
 H         4.5048448187       -2.7780000456      -11.4006902832
 H         4.6028985267       -0.6290020668      -10.2173036553
 H         3.0851688812       -0.9877107434       -9.2391493362
 H         3.3975340139        0.6141764060      -10.0631265226
 H         7.2661072676        3.3360093286      -14.0884789034
 H         8.5582741376        2.4642948697      -14.6847575884
 H         7.7169758577        1.8272678348      -13.2593644520
 H         7.6844963340        2.5363551577      -17.0620823291
 H         6.1729200571        3.2662417257      -16.4551503222
 H         6.2252401657        1.8728349760      -17.3522748404
 H         8.6581522733       -4.9143610840      -14.3997407785
 H        10.0809605734       -5.4155360767      -15.4313314353
 H         8.6987839826       -6.2416770179      -15.2875767514
 H         9.1486186029       -5.8668716181      -18.0581604799
 H        10.3309846561       -4.4901460025      -18.1017897068
 H         8.5878722089       -4.4975602449      -18.8212905387
 H         1.2441118697       -3.2449818917      -18.3910530105
 H         1.8387021359       -2.8040497166      -16.7853098649
 H         1.1065523046       -4.4144843167      -17.0759509243
 H         3.9714575314       -5.3828053403      -19.4744108672
 H         2.3854492681       -4.8302447157      -19.6359213843
 H         2.7923528768       -6.0771487659      -18.5027616971
 Na        3.5387569480       -1.2359898800      -15.7245498885
 Na       -7.0275879540       -1.8686907398       -9.1063888416
