232

 C         4.6076062383       -2.8515592295      -19.8664761070
 C         3.7340522295       -2.6393133048      -18.6246702911
 O         3.6233965512       -1.5953004473      -18.0171656791
 C         3.0889833297       -4.0037809560      -17.9679594287
 C         3.9350338934       -4.2899396925      -16.6236052772
 O         3.9350756005       -3.5360266484      -15.6265028086
 C         4.7631372705       -5.6572668420      -16.4843918983
 C         6.1275573669       -5.3930579951      -15.7032746707
 C         7.0195834498       -4.6743797656      -16.8138299934
 O         6.5043584535       -4.3287890479      -17.9577127768
 C         8.4844981659       -4.4372800962      -16.5782925859
 C         8.7460181386       -2.7545551315      -16.4311294065
 O         9.0396265155       -2.1518172804      -17.4479334835
 C         8.4865976771       -2.0950826851      -15.0596423311
 C         8.4336057448       -0.5574396261      -15.0935232388
 C         7.0006171448       -0.0424264975      -15.3394176924
 O         6.1126367673       -0.8285285039      -15.5962662607
 C         6.5768976357        1.5420499821      -15.3072468777
 C         5.0759380451        1.4655822400      -14.8555560937
 O         4.2117996889        1.2100124042      -15.6512063023
 C         4.8484172808        1.4578922443      -13.3700644019
 C         3.4005477949        0.9489824227      -13.0256729463
 C         3.3780893743       -0.5774203151      -12.7919637972
 O         3.6397120140       -1.3947544592      -13.6814100515
 C         3.1458397138       -1.1637254494      -11.4198613448
 C         1.4680745953       -1.0319391590      -11.2521229890
 O         1.0408659131       -0.1975381611      -11.9392089362
 C         0.6267664330       -2.1807824448      -10.5650865942
 C        -0.7804735777       -1.7657934008      -10.0556325097
 C        -1.8180863340       -1.9761074709      -11.2153881913
 O        -1.6420509099       -2.9596135267      -11.9360134554
 C        -3.0615856113       -1.0491765667      -11.5522947762
 C        -4.3982205052       -1.7335437177      -11.1336033449
 O        -4.8225991545       -1.5463955300      -10.0131817271
 C        -5.1983610848       -2.6833648646      -11.9880932014
 C        -4.8257483554       -4.1154311421      -11.5695869307
 C        -5.3436146719       -4.5057397780      -10.2483576558
 O        -6.1910889004       -3.9554415694       -9.5878979179
 C        -4.5951580743       -5.7202775840       -9.6466007007
 C        -3.5043256926       -4.9377714030       -8.6307011614
 O        -2.3242050227       -5.0204968340       -8.8908680763
 C        -4.0365234014       -4.2603952791       -7.3556484313
 C        -2.9547995409       -3.5326298832       -6.5687548391
 C        -3.3806593602       -2.1898009685       -5.8981406778
 O        -4.5367846415       -1.9515964192       -5.5999346678
 C        -2.3267403879       -1.1211559099       -5.4979902543
 C        -2.7181549772        0.1222044528       -6.2473532167
 O        -2.1873238406        0.4287553583       -7.2765829598
 C        -3.8289079975        0.9424021084       -5.6344132043
 C        -4.5829966607        1.7510619518       -6.7058326806
 C        -5.7081482445        1.0459728480       -7.4602420022
 O        -5.7539291015       -0.1540571701       -7.6094742908
 C        -6.9738528505        2.0435408985       -7.9911857751
 C        -7.4627646281        1.5069614264       -9.4489626897
 O        -7.6298173735        0.3379627187       -9.7000398873
 C        -7.8323695306        2.5117073929      -10.4741379097
 C        -8.5525061459        1.6701499242      -11.6285295914
 C        -9.6364359402        0.7948315313      -11.0926816802
 O       -10.2900254958        1.2268896469      -10.2038432526
 C        -9.9131884736       -0.5824626602      -11.6635560077
 C        -9.7041018258       -1.7207134557      -10.4683961678
 O        -8.7449410893       -2.5243198387      -10.7314142929
 C       -10.4593695025       -1.5725462814       -9.1628826174
 C       -10.7908528166       -2.9495281260       -8.5372559384
 C        -9.8697441481       -3.4826212115       -7.5450722134
 O        -8.8124407266       -2.9447463498       -7.3492586479
 C       -10.1560625596       -4.8881777237       -6.7500067357
 C       -11.3957252755       -4.8984750057       -5.9807001810
 O       -12.2781488897       -5.7305729178       -6.2529782152
 C       -11.6165825841       -3.9608137962       -4.8596730273
 C       -13.0516669939       -3.3958586701       -4.5892888898
 C       -13.2306668114       -2.0239082108       -5.2754669633
 O       -12.5711729400       -1.7459791524       -6.2719102481
 C       -14.3192697696       -1.0298825957       -4.7095396009
 C       -13.7807093429       -0.4380986361       -3.1832182975
 O       -14.3103012633       -0.8661953591       -2.1699560162
 C       -12.6848844364        0.5573911615       -3.2247800968
 C       -11.7305543247        0.5401855047       -1.9129533569
 C       -10.3139126018        0.8985340994       -2.3231141945
 O        -9.9251335317        0.6756439775       -3.4389870024
 C        -9.2337453600        1.4928900250       -1.2080694088
 C        -8.7166980593        2.8145723961       -1.9461869510
 O        -7.5745694798        2.9795460416       -2.4084835507
 C        -9.7727563448        3.8922827677       -2.1118361088
 C        -9.7866546512        1.7295576804        0.1758319511
 C        -7.9563714388        0.6113698852       -1.1903172700
 C       -14.4201479410        0.0797525274       -5.6916880629
 C       -15.7039743777       -1.7731033792       -4.6444241015
 C       -10.0890952632       -5.9236829259       -7.9015543103
 C        -8.9724941530       -5.1736902697       -5.8119919985
 C       -11.3661446528       -0.6872088017      -12.2602238073
 C        -8.9149698107       -0.9889981662      -12.7970933772
 C        -8.1020051562        2.0287957771       -7.0004141778
 C        -6.5107146101        3.4879563896       -8.2301217732
 C        -2.2957658955       -0.9037886949       -3.8805290340
 C        -0.8176813762       -1.5802685934       -5.8576075656
 C        -5.5117177321       -6.5148192747       -8.7084275101
 C        -3.7383900079       -6.7080679092      -10.4481616961
 C        -3.0723704388        0.2311752065      -10.7400445994
 C        -2.7892897009       -0.7260113402      -13.0631453392
 C         3.6185751424       -2.6285459978      -11.3691842165
 C         3.7437303655       -0.3637828640      -10.1611826457
 C         7.4037905084        2.2677998527      -14.1812006994
 C         6.7473936193        2.2433693223      -16.6013346739
 C         9.1821163384       -5.2337004477      -15.4526353874
 C         9.1404945069       -4.8943526510      -17.9368955891
 C         1.6508814053       -3.7832211172      -17.5068321005
 C         3.1549582866       -5.2397710668      -18.8865709168
 H         4.1095256021       -2.5774663800      -20.7637531342
 H         4.9834570956       -3.8649051301      -19.8411909404
 H         5.5536312334       -2.2677225066      -19.7969979724
 H         5.0588479434       -6.1014197946      -17.4229939387
 H         4.0942541477       -6.4011685013      -15.9670245532
 H         6.6815871303       -6.2541099050      -15.2941917277
 H         5.8943230932       -4.6456205816      -14.9269364442
 H         9.3645392163       -2.4538112781      -14.5128910777
 H         7.6128491580       -2.5831941397      -14.6551004869
 H         9.0755164224       -0.1827223456      -15.9090013688
 H         8.7059469532       -0.1028253689      -14.1321160534
 H         4.8667425747        2.4952895524      -12.9797010015
 H         5.5631452513        0.8406228650      -12.7619266645
 H         2.7009280986        1.2131662401      -13.9087780971
 H         3.0236475855        1.3969768259      -12.1400110454
 H         1.0816426710       -2.6076137918       -9.6771382692
 H         0.3727488291       -2.9111061776      -11.3560845825
 H        -0.7411236034       -0.7540483929       -9.7690778547
 H        -1.1922670496       -2.4184531100       -9.2760320193
 H        -4.8926711571       -2.4252267873      -13.0074882553
 H        -6.3058077039       -2.6356063711      -11.7857977972
 H        -3.7267333480       -4.2408989982      -11.4412144514
 H        -5.1877312800       -4.8392176409      -12.3372671198
 H        -4.4360708110       -5.0069695784       -6.6683943510
 H        -4.8964537056       -3.5850027508       -7.5460923286
 H        -2.0635414867       -3.3956312301       -7.2017738275
 H        -2.6928462587       -4.1852959219       -5.7242437441
 H        -3.5417196191        1.5972510232       -4.8271086077
 H        -4.4777927382        0.2225215916       -5.0749040359
 H        -3.8889821301        2.3039940582       -7.4331677457
 H        -5.0010880187        2.5745639953       -6.1782123912
 H        -7.1085463466        3.1529942837      -10.8513686769
 H        -8.7085416109        3.0773672033      -10.0366224463
 H        -7.7353339146        1.1758524877      -12.1521329843
 H        -9.0746764403        2.4256603801      -12.2033049380
 H       -11.4194820892       -1.0185438838       -9.3438891581
 H        -9.9162233988       -1.0831077576       -8.4118830978
 H       -10.9887832676       -3.6238246256       -9.3524899568
 H       -11.7411049426       -2.9142107603       -8.0825593461
 H       -11.0037958536       -3.0724249096       -4.9952276817
 H       -11.2004837190       -4.5016853118       -4.0032106703
 H       -13.3946911766       -3.3811209592       -3.5782903673
 H       -13.6819077495       -4.1885979103       -5.0699871311
 H       -13.1966566653        1.5087959614       -3.3118766306
 H       -11.8938599749        0.3317368640       -3.9913109833
 H       -11.7605971117       -0.3999163566       -1.4046197394
 H       -12.1238576949        1.2185586935       -1.1663746093
 H        -9.2568249203        4.7918846014       -2.5620541535
 H       -10.4145195021        4.0874821409       -1.1986612819
 H       -10.5242371930        3.6541434967       -2.8787193723
 H       -10.1283675733        0.7754254081        0.5875318170
 H       -10.5945561037        2.3943244230        0.1413991646
 H        -8.9682298568        2.1724584357        0.7965231822
 H        -7.4023395426        0.7050299118       -2.1623373472
 H        -8.2680655443       -0.3383634896       -0.8102877806
 H        -7.2943396022        0.9457176832       -0.4401099452
 H       -14.8230307559       -0.2461839590       -6.7145189715
 H       -13.4983349189        0.6422788019       -5.7366682429
 H       -15.1344217362        0.7787418655       -5.3569869318
 H       -15.8363357432       -2.3649643976       -3.6560319546
 H       -15.8734715838       -2.4894934530       -5.4902051372
 H       -16.3116570794       -0.8534418107       -4.4986522696
 H        -9.0144907591       -6.3140169758       -8.0363854493
 H       -10.5872183683       -5.4516078377       -8.7985365178
 H       -10.6501433264       -6.7910873943       -7.6088765880
 H        -8.5767297923       -6.1838534029       -5.9938945409
 H        -9.3044122358       -5.1412833871       -4.7781746551
 H        -8.2086923141       -4.3818042927       -5.9264687365
 H       -11.6222077273        0.1472076038      -12.8606194141
 H       -12.1259934297       -0.7714548089      -11.4876967151
 H       -11.3882910482       -1.5480189848      -12.8704686834
 H        -8.0098831843       -1.2632423112      -12.3961932219
 H        -8.7774910452       -0.1181573241      -13.5163944463
 H        -9.3570776316       -1.7480910574      -13.5133780787
 H        -9.0325766433        2.3747696992       -7.4416128141
 H        -7.9026687815        2.5695886807       -6.0804319406
 H        -8.3349277213        0.9366103882       -6.6103435889
 H        -5.6141299132        3.6922175892       -8.8535001575
 H        -6.2948245877        3.9445500707       -7.2317684163
 H        -7.4245595881        4.0704775795       -8.5187711699
 H        -3.1286964912       -1.5098768084       -3.4156424972
 H        -2.3174661595       -0.0007751421       -3.3929135396
 H        -1.3533585906       -1.2549940710       -3.6308998532
 H        -0.7590873320       -2.6332445456       -5.6608295152
 H         0.1142374808       -1.0814762220       -5.4077627707
 H        -0.7068989152       -1.5735193798       -6.9614278984
 H        -5.0069519357       -7.1877559967       -8.0076838709
 H        -6.2431008518       -7.0474619946       -9.2759011404
 H        -6.0471046519       -5.8581861495       -8.1185668860
 H        -2.6960937496       -6.4588024000      -10.3447819246
 H        -3.9095481759       -6.6716058794      -11.5247278347
 H        -4.0999178487       -7.7332828494      -10.0535340017
 H        -2.1749611798        0.7835637626      -10.9491179441
 H        -3.0022434382        0.0332370032       -9.6281059672
 H        -4.0066014507        0.6369633870      -10.9764367662
 H        -3.4415583008       -0.0404976300      -13.4734613629
 H        -2.7009173796       -1.6609976182      -13.6340884061
 H        -1.8355532261       -0.2646792204      -13.2001586602
 H         3.4566078752       -3.2930206459      -12.2505433935
 H         3.1935118936       -3.1179217042      -10.4244587871
 H         4.6941345612       -2.5017830466      -11.1235869664
 H         4.8283850637       -0.3966128815      -10.2241082330
 H         3.2625658276       -0.7221112109       -9.2449503817
 H         3.5257706584        0.7396310751      -10.3109402843
 H         6.9437490653        3.1719480407      -13.7955510495
 H         8.2812816676        2.7464957594      -14.6381117678
 H         7.7782694502        1.6766580299      -13.3334193621
 H         7.7697869968        2.2697130634      -16.8722540867
 H         6.3692718891        3.2865440042      -16.5301515600
 H         6.3212475884        1.9538313262      -17.5025756845
 H         9.5317708862       -4.5974831055      -14.6687876799
 H         9.9586148629       -5.9171459739      -15.8355006156
 H         8.6572893193       -5.8064105363      -14.7403007358
 H         8.9399447872       -6.0429359329      -18.0706903940
 H        10.1798903598       -4.6000107626      -17.9186364859
 H         8.5911986424       -4.4441499048      -18.7142688332
 H         1.2663204710       -3.3520073065      -18.3331214814
 H         1.4873093364       -3.1456100173      -16.6456407106
 H         1.1164585974       -4.6754572112      -17.4551221933
 H         4.1155287277       -5.5793163224      -19.3053030542
 H         2.4911144921       -5.1155606402      -19.7376850038
 H         2.7879876029       -6.0722508447      -18.3039881287
 Na        3.7646965747       -1.1372508683      -15.7787413222
 Na       -7.1455219205       -1.8830235637       -8.9617035985
