232

 C         4.4748553114       -2.7266941746      -19.8689199165
 C         3.8041557577       -2.7137982999      -18.4943793691
 O         3.7375896364       -1.6121055602      -17.9978263029
 C         3.0506043140       -4.0143248048      -17.9413537664
 C         3.8993774316       -4.2377248298      -16.6618172122
 O         3.7876150119       -3.4759943271      -15.7038902453
 C         4.6993761878       -5.5370093824      -16.4150873710
 C         6.0580054246       -5.3360244012      -15.8065574996
 C         6.9748242271       -4.6507091718      -16.7702181114
 O         6.3929163710       -4.3601692023      -17.8058023824
 C         8.5706377364       -4.3311671930      -16.6459133716
 C         8.6204349098       -2.7851203752      -16.5219290637
 O         8.9496117328       -2.1083347989      -17.4461591456
 C         8.4845665785       -2.1561845926      -15.1326074303
 C         8.4095468249       -0.5614026423      -15.2655128980
 C         6.9787191445       -0.0554939127      -15.4144056907
 O         6.1442314437       -0.8999108855      -15.6774383803
 C         6.5836068667        1.4648904511      -15.2962754065
 C         4.9485483146        1.3646994479      -14.9400323789
 O         4.1392574916        1.2526599975      -15.7946584473
 C         4.6664560937        1.4968450911      -13.4681028926
 C         3.3496112638        0.8597590916      -12.8924029022
 C         3.4939434858       -0.6481235574      -12.7273112673
 O         3.6763548944       -1.4357017521      -13.6065183427
 C         3.1665863526       -1.2415559265      -11.2416889773
 C         1.5031211188       -1.1101810942      -11.3399175008
 O         1.0233232762       -0.0438305194      -11.8183142641
 C         0.6774526483       -2.0861087866      -10.6164580714
 C        -0.7733980489       -1.6767528541      -10.1614956498
 C        -1.8063995527       -2.0820532979      -11.1908942908
 O        -1.6274489785       -3.0265133886      -11.9372629229
 C        -3.0380561787       -1.0407199418      -11.4778869961
 C        -4.3863303949       -1.7260785665      -11.1084833061
 O        -4.8356642390       -1.4297339772       -9.9847287393
 C        -5.1116802899       -2.6943217790      -12.0589543599
 C        -4.7441924608       -4.1761116379      -11.7351714030
 C        -5.2617935264       -4.5912453248      -10.2480232257
 O        -6.1908543713       -3.9911480308       -9.8104185823
 C        -4.6170207452       -5.7769179917       -9.3997833384
 C        -3.6204424893       -4.9961638337       -8.5389045845
 O        -2.4999227281       -4.8033159259       -8.9202379840
 C        -4.1065491410       -4.3382035639       -7.2651787511
 C        -2.9760372237       -3.5776303017       -6.5838572523
 C        -3.3351689986       -2.2521529561       -5.9202016888
 O        -4.4854850524       -2.1116353941       -5.5664686632
 C        -2.1624062830       -1.2292080893       -5.5881013172
 C        -2.5725580406        0.1451845860       -6.3453012661
 O        -2.1808848343        0.5352991412       -7.4429222478
 C        -3.7983404060        0.9812759446       -5.6831081234
 C        -4.6121515098        1.7748815873       -6.6467790044
 C        -5.8216661457        1.1322147592       -7.4014155480
 O        -5.7870194293       -0.0727310937       -7.5673194420
 C        -6.8833822403        2.0782916672       -8.0109516815
 C        -7.5846489829        1.4914585311       -9.3689004464
 O        -7.5814922446        0.2528545009       -9.5074306223
 C        -7.9932657547        2.4942421873      -10.4567315136
 C        -8.5344449809        1.7441925297      -11.6647978168
 C        -9.6636856242        0.8363177508      -11.0891875380
 O       -10.3483753159        1.1833663581      -10.1454332712
 C        -9.8878416582       -0.6787819885      -11.6643455760
 C        -9.6122080804       -1.7146389303      -10.5012046327
 O        -8.8250730733       -2.5948540281      -10.6351725754
 C       -10.3644545544       -1.5331063528       -9.2418092005
 C       -10.7867719102       -2.8595996568       -8.4962712882
 C        -9.7318169958       -3.4418641517       -7.5145223016
 O        -8.6432845863       -2.9290770418       -7.2325351159
 C       -10.0452703202       -4.8629880383       -6.8680296513
 C       -11.5103216998       -4.9307126899       -6.0244022551
 O       -12.2848081182       -5.7809205235       -6.2042986886
 C       -11.5842291988       -3.8705548776       -4.8500593482
 C       -12.9327196192       -3.3196356840       -4.5410961244
 C       -13.2396777369       -2.0423501128       -5.3221446313
 O       -12.5613298984       -1.8036458913       -6.2827458851
 C       -14.2747563029       -0.9384258958       -4.7262631817
 C       -13.7774031501       -0.5352196073       -3.2642159325
 O       -14.3873268620       -0.9703152380       -2.3005033557
 C       -12.5409306602        0.4116634347       -3.1522160389
 C       -11.6930797233        0.4190558811       -1.7694316350
 C       -10.2424458984        0.8501430722       -2.2219220450
 O        -9.9183903875        0.8108015398       -3.3905705492
 C        -9.2626421965        1.4581807966       -1.1873124585
 C        -8.8193221290        2.8579720310       -1.9260279820
 O        -7.6449522131        2.9090896051       -2.3172082284
 C        -9.8404353590        3.9639080924       -2.3201608183
 C        -9.8991369502        1.4972372981        0.1384009810
 C        -7.9961699600        0.5347756994       -1.0967166571
 C       -14.3874599253        0.2041160358       -5.7572122186
 C       -15.6271352082       -1.6852605903       -4.5290724663
 C       -10.0572904809       -6.0310105891       -7.9624626883
 C        -8.8400519616       -5.2042571198       -5.8085664176
 C       -11.3859247755       -0.7142993118      -12.1066434298
 C        -8.9331194151       -1.0530551926      -12.8562141478
 C        -8.1220487970        1.9942031801       -6.9952583373
 C        -6.4591527914        3.5508767888       -8.2540057514
 C        -2.4206397639       -1.0450758557       -4.0557084232
 C        -0.6538904269       -1.4225515263       -5.9576074961
 C        -5.7113186906       -6.5775059479       -8.6320962862
 C        -3.9372579172       -6.7535371619      -10.4481353977
 C        -2.8836547464        0.3623140958      -10.7339475216
 C        -2.9375348123       -0.6613543360      -12.9942499788
 C         3.7549154254       -2.5967423747      -11.0399850323
 C         3.8801179517       -0.2586366200      -10.2638034342
 C         7.3723586289        2.2283239449      -14.1801173396
 C         6.7813972137        2.0465486041      -16.7091739580
 C         9.2249071185       -5.0979093741      -15.4714861016
 C         9.2003017776       -4.8328827901      -17.8990047715
 C         1.5831485673       -3.7939849099      -17.5503155155
 C         3.2001303467       -5.2385086834      -18.8566726935
 H         3.8148220373       -2.2406585162      -20.6090251874
 H         4.9207739780       -3.6338752750      -20.1751049322
 H         5.3792036023       -2.0190793082      -19.7346666849
 H         4.9071672991       -6.1126124132      -17.3470501016
 H         4.0877076408       -6.2000085622      -15.7371487928
 H         6.5957953639       -6.2740345913      -15.7003350488
 H         5.9121449019       -4.7887793854      -14.8272437842
 H         9.3503343451       -2.5130127206      -14.6248005681
 H         7.5991897082       -2.6004696899      -14.6571106913
 H         8.9235926280       -0.2376550004      -16.2143317860
 H         8.8032897759       -0.0491676744      -14.4326495499
 H         4.4905684104        2.5217930756      -13.2731230888
 H         5.4735865208        1.1120535640      -12.8401897620
 H         2.5629705979        0.9774703140      -13.5655340826
 H         3.0612974967        1.3396417078      -11.9669001536
 H         1.1352412649       -2.3522931695       -9.6557647219
 H         0.4742877057       -2.9468175251      -11.3029896056
 H        -0.8500709707       -0.5988275897      -10.1087777905
 H        -1.0410209585       -2.1625571605       -9.2306668888
 H        -4.7885695938       -2.4020618574      -13.0842732797
 H        -6.2470160024       -2.6747503239      -11.9093236757
 H        -3.6245048170       -4.3482579628      -11.9609245296
 H        -5.3639678688       -4.7624119251      -12.4774896582
 H        -4.4652929951       -5.0504792836       -6.5493428963
 H        -4.9984220038       -3.6581755208       -7.3894662705
 H        -2.1447621472       -3.4146365596       -7.3425752519
 H        -2.5688904849       -4.1831439162       -5.8043336933
 H        -3.4577478911        1.7123447760       -4.8763325633
 H        -4.4185378915        0.3106424584       -5.0748532866
 H        -3.9688396587        2.0566372725       -7.4680696687
 H        -4.7654969771        2.7856842224       -6.1714876816
 H        -7.1357520866        3.1093096989      -10.7003869228
 H        -8.8726291555        3.1409863831      -10.1318034971
 H        -7.6530386822        1.1328387513      -11.9564948835
 H        -8.8943495307        2.4640725189      -12.4331944790
 H       -11.1756874982       -0.8015017201       -9.2585858394
 H        -9.6195763707       -1.2257626490       -8.4613456682
 H       -11.1341269377       -3.6039723448       -9.2384642997
 H       -11.7273871477       -2.6560951996       -7.9278927691
 H       -10.9929037988       -3.0387457314       -5.0390254521
 H       -11.1952009494       -4.3808482468       -3.9784165150
 H       -13.1153026385       -3.1571569640       -3.4814625292
 H       -13.5457370621       -4.1723190478       -4.7974455847
 H       -13.0541919999        1.4180448825       -3.2404432073
 H       -11.6938317730        0.2257103700       -3.8213032363
 H       -11.7346322438       -0.5346346812       -1.2652014616
 H       -12.1999556532        1.0440210786       -1.0528354984
 H        -9.3098487435        4.7045070159       -2.9915062411
 H       -10.3872391455        4.3958627356       -1.4538694302
 H       -10.6787171906        3.6238826215       -2.9733021404
 H       -10.0514748920        0.5274082226        0.3909725358
 H       -10.8548891790        1.9363519815        0.1579567565
 H        -9.3133712190        2.0626193403        0.7914936486
 H        -7.3216188207        0.6757489821       -1.9679643451
 H        -8.4374730272       -0.4267041597       -0.8444391314
 H        -7.3924448824        0.7610627362       -0.2273824935
 H       -14.9129387120       -0.2106359191       -6.6509076687
 H       -13.5542037835        0.7831184534       -5.9768721265
 H       -15.1491636513        0.8877466441       -5.3526013986
 H       -15.6528888929       -2.2545462350       -3.6132227247
 H       -15.6952339816       -2.4047944439       -5.3066316650
 H       -16.3733935154       -0.8935610271       -4.4384285504
 H        -9.0455003086       -6.3691523445       -8.2863780925
 H       -10.7659762825       -5.8322629729       -8.7285740150
 H       -10.4479198782       -6.8751478737       -7.3362531496
 H        -8.2670943874       -6.0673352824       -6.1071205566
 H        -9.2771835937       -5.3670550361       -4.7962529354
 H        -8.2700697758       -4.3593442340       -5.7300582294
 H       -11.6078032064        0.2028472951      -12.5735963145
 H       -12.0594635270       -0.8138908407      -11.2821769285
 H       -11.5744349662       -1.5201291396      -12.8889289344
 H        -7.8741136294       -1.0036682308      -12.4852663522
 H        -9.0811168620       -0.3112754453      -13.6132914072
 H        -9.1508350922       -1.9978085124      -13.3912068010
 H        -8.9429731929        2.7435927425       -7.2937410802
 H        -7.7392901932        2.3473496197       -5.9915924311
 H        -8.6461415732        1.0692978439       -6.7669485684
 H        -5.7484640291        3.7856153321       -9.0352918154
 H        -6.0111632841        3.9240780098       -7.3188170426
 H        -7.3538859887        4.1181150777       -8.3771417141
 H        -3.2879991341       -1.5021661655       -3.8895102041
 H        -2.5304085322        0.0073281567       -3.5088462825
 H        -1.6054527718       -1.3840808469       -3.4432614373
 H        -0.3491202993       -2.3427961045       -5.4641473724
 H         0.0360120346       -0.6086075353       -5.6443385363
 H        -0.4918750828       -1.6527630939       -7.0240573991
 H        -5.3619510897       -7.2645170166       -7.8999219266
 H        -6.2513917970       -7.0971513440       -9.3672302371
 H        -6.3958520543       -5.9155753684       -8.0341184910
 H        -2.8857349477       -6.3175646951      -10.5654331535
 H        -4.3685754989       -6.6234999897      -11.4754054336
 H        -4.0479036712       -7.7747574766      -10.1316878422
 H        -1.8372520394        0.7766459494      -10.8052715367
 H        -2.9376841424        0.1357080193       -9.6795558914
 H        -3.7645523803        0.8759264396      -10.9964728234
 H        -3.7050514083       -0.0129403957      -13.3200957234
 H        -2.7554309023       -1.5321401476      -13.6167803947
 H        -2.0824780917       -0.0122812741      -13.2003001541
 H         3.4213407691       -3.2272608330      -11.9014462825
 H         3.6026431433       -3.1811360631      -10.1063025075
 H         4.8748700043       -2.3918112593      -11.1504620735
 H         4.9127376138       -0.2002666143      -10.6511851373
 H         3.7539789265       -0.5011420078       -9.1925140221
 H         3.5507818087        0.7595450989      -10.4240799806
 H         6.8121646934        3.1126554752      -13.8436881945
 H         8.2541670826        2.6721475343      -14.4889460274
 H         7.6251628259        1.6333955528      -13.2349304819
 H         7.7573231021        1.8643148881      -17.0205470374
 H         6.5996166691        3.1043970517      -16.8226005355
 H         6.1773275513        1.7258683442      -17.5644535579
 H        10.1234904261       -4.7051309879      -15.1138178069
 H         9.3972041523       -6.2055607510      -15.7164184834
 H         8.7745752918       -5.0201281403      -14.5120304294
 H         8.8536417473       -5.8925237001      -18.1051484523
 H        10.2532607435       -4.7457636230      -17.7364948136
 H         8.8558618461       -4.2125787778      -18.7178468155
 H         1.0642413019       -3.4126130645      -18.4036671303
 H         1.3549519426       -3.2728517722      -16.6493018274
 H         1.2075405394       -4.8076401364      -17.5136624711
 H         4.2125714269       -5.6300111673      -19.1294158331
 H         2.6662420682       -5.0698086819      -19.8350037620
 H         2.6503205103       -6.1057907428      -18.3511031329
 Na        4.0072834057       -1.0369911458      -16.0110725961
 Na       -7.2278854562       -1.8676516691       -8.7547207948
