232

 C         4.1869629187       -2.8397456609      -20.2252487584
 C         3.7770538579       -2.6991312522      -18.7572343470
 O         3.6978680557       -1.6027988127      -18.2494622384
 C         3.2704072538       -4.0034130325      -17.9771401933
 C         3.9303297696       -4.1996652597      -16.6185295702
 O         3.6847500937       -3.2482527078      -15.8486682884
 C         4.6233003319       -5.4935547457      -16.1600588309
 C         6.0917241641       -5.2009694900      -15.7468006768
 C         6.8092251313       -4.4414776284      -16.8862210643
 O         6.2749086336       -4.0330264522      -17.9407811047
 C         8.3460801071       -4.2596555623      -16.6688603288
 C         8.6484601962       -2.6651332197      -16.6344116156
 O         8.5636235515       -2.0577073207      -17.6494172698
 C         9.0892678345       -1.9806455221      -15.2864176270
 C         8.5456551363       -0.5269916538      -15.2098847478
 C         6.9810806533       -0.3216385954      -15.5535739032
 O         6.2370145076       -1.2082801823      -15.9029974078
 C         6.4462577096        1.1859183823      -15.4370506976
 C         4.9093056515        1.3538415643      -15.0439088537
 O         4.1204940715        1.3012076988      -15.9317985753
 C         4.4549614260        1.6052921861      -13.5456811311
 C         3.2130820059        0.7374406200      -13.2573443207
 C         3.5979945828       -0.6391143794      -12.6142315219
 O         4.0715175789       -1.4347470954      -13.3882261563
 C         3.2454090933       -1.0813296905      -11.1730045193
 C         1.6344231975       -0.9067143172      -11.0577217927
 O         1.1496118699        0.2100882570      -11.1775129807
 C         0.7244653050       -2.1182816350      -10.5611297068
 C        -0.7457536017       -1.7259909104      -10.1605147670
 C        -1.7456392389       -1.9643464818      -11.2649385589
 O        -1.7168444322       -2.9938993367      -11.9355463393
 C        -2.9364654542       -0.9494369165      -11.4695014909
 C        -4.3405504846       -1.6396995855      -11.0504438199
 O        -4.8191307685       -1.2715480048       -9.9671765256
 C        -4.8779781871       -2.7118241203      -11.9705583723
 C        -4.5630343816       -4.1978386311      -11.4466982769
 C        -5.5183275812       -4.6046305398      -10.2977035330
 O        -6.4021340275       -3.9401245247       -9.8619200049
 C        -4.9248474733       -5.7155657852       -9.3170765842
 C        -3.6741576799       -4.9582343714       -8.7127150737
 O        -2.7813328225       -4.6504555652       -9.4512052619
 C        -3.7892212117       -4.7091841487       -7.2129953307
 C        -2.7430248873       -3.6848762094       -6.6908943316
 C        -3.3173782393       -2.4203235580       -5.9954703367
 O        -4.4431134914       -2.2590444803       -5.6366704804
 C        -2.1467001623       -1.1521404319       -5.6702002982
 C        -2.6943173536        0.0604710738       -6.4142105843
 O        -2.3197628794        0.4161239659       -7.5133462214
 C        -3.8696216826        0.8334768625       -5.7025671907
 C        -4.5054772926        1.8336329645       -6.7572399371
 C        -5.7947605402        1.2005013130       -7.3581200638
 O        -5.9793873636       -0.0042252442       -7.3043993006
 C        -6.9231270200        2.1310550112       -7.9430670269
 C        -7.6079511543        1.5799092125       -9.2529359794
 O        -7.7374807177        0.3616637841       -9.3593856282
 C        -8.0241377739        2.4193015832      -10.4162304622
 C        -8.6797286804        1.5435973064      -11.5093109748
 C        -9.8609232565        0.7628102588      -11.0510765795
 O       -10.5628937450        1.1937653476      -10.2046866902
 C        -9.9788351803       -0.8027226463      -11.5975727104
 C        -9.5307494003       -1.7290448366      -10.3599268648
 O        -8.6003845913       -2.5528665441      -10.5057211813
 C       -10.2565920346       -1.5848962327       -9.0379538678
 C       -10.5158265966       -2.9860890216       -8.3358294284
 C        -9.5118407769       -3.5359222382       -7.4387716549
 O        -8.4446959575       -3.0105660448       -7.2875438332
 C        -9.8572035836       -4.8868304054       -6.8068813104
 C       -11.2576414084       -4.7164428653       -5.9108756687
 O       -12.2380515198       -5.2853286798       -6.2503274932
 C       -11.2548838233       -3.6830960252       -4.8710163662
 C       -12.7402893413       -3.2579153286       -4.5767489546
 C       -13.1244943484       -2.0198402369       -5.3695231504
 O       -12.6340068831       -1.6547259049       -6.4063327613
 C       -14.2623332791       -1.1104500038       -4.7577906175
 C       -13.6489228611       -0.7426791095       -3.2849136757
 O       -14.1124172798       -1.0995001635       -2.2226131062
 C       -12.4417710061        0.1425082147       -3.3629614215
 C       -11.5277281120        0.0231829452       -2.0739678776
 C       -10.2315924554        0.7193291663       -2.3606783080
 O        -9.8086065834        0.8216728861       -3.4884225678
 C        -9.3921901127        1.3051297673       -1.2030895162
 C        -8.9179662197        2.6644887092       -1.7976357504
 O        -7.7171557861        2.9913855904       -1.8013816824
 C       -10.0497202804        3.6622353922       -2.1376422591
 C       -10.1592972055        1.7370823470        0.1290699142
 C        -8.2226977724        0.3236598336       -0.8908491422
 C       -14.3548716972        0.2834641026       -5.4988732610
 C       -15.7230303788       -1.7433746219       -4.7915360159
 C       -10.1084711113       -5.8729236580       -7.9957514112
 C        -8.7336934783       -5.3612011224       -5.8486424572
 C       -11.4928806596       -1.0548153524      -11.8703332608
 C        -9.1111312436       -1.1941925816      -12.8349257095
 C        -8.0839772863        2.1537179111       -6.7776616681
 C        -6.4524557659        3.5861453081       -8.1538672146
 C        -2.0641621229       -0.8337419041       -4.1819445003
 C        -0.8088759689       -1.5991942289       -6.2627795955
 C        -6.1248744056       -6.3064208786       -8.5039734195
 C        -4.2675479109       -6.8927639543      -10.0560913908
 C        -2.8990011829        0.3923447515      -10.6123775194
 C        -3.1105279643       -0.4826235791      -12.9140591461
 C         3.8343092031       -2.4589006364      -10.9511317493
 C         3.8050883808        0.0188045017      -10.2660546729
 C         7.4107401708        2.0045734927      -14.5263545098
 C         6.5751242179        1.6979459514      -16.9307118004
 C         8.9235945576       -5.0184371854      -15.5167588839
 C         9.1630079116       -4.7673155337      -17.8787928344
 C         1.6963650156       -3.6791281307      -17.8011742138
 C         3.2736845272       -5.3204146123      -18.8367361792
 H         3.2961980770       -2.9581646904      -20.7924396924
 H         4.8403252003       -3.6198943117      -20.4555256935
 H         4.7140561409       -1.8853444168      -20.5510916069
 H         4.8178262078       -6.2284183105      -16.8806778936
 H         4.1343347216       -5.9311651370      -15.2787069183
 H         6.5638797122       -6.1479488813      -15.8757237986
 H         6.2211922378       -4.7750376997      -14.7506596607
 H        10.1878435417       -2.0336685013      -15.1704396633
 H         8.6665847887       -2.6096443371      -14.4865171248
 H         8.9821600482        0.1624876785      -15.9595659928
 H         8.7951402372       -0.1697632471      -14.2091024423
 H         3.9615978176        2.5987553752      -13.4801525394
 H         5.2414675647        1.4207827999      -12.7300726290
 H         2.7543339731        0.4621267572      -14.2837933522
 H         2.4254128423        1.2503213097      -12.6805730702
 H         1.0695208823       -2.5753730583       -9.6526356049
 H         0.6376061291       -2.8242047077      -11.3888218989
 H        -0.7740806281       -0.6677710392      -10.0136796357
 H        -1.0127445884       -2.3199117773       -9.2569034362
 H        -4.4144062950       -2.6885313974      -12.9291536495
 H        -5.9444928464       -2.4965024747      -12.1186589648
 H        -3.5448695600       -4.1210244199      -11.1519130307
 H        -4.6024647640       -4.8228728175      -12.2915094384
 H        -3.8430573660       -5.5533068051       -6.5589972550
 H        -4.7886795172       -4.2248863387       -7.1268194129
 H        -2.0520562104       -3.3731621512       -7.4884031490
 H        -2.0741352267       -4.0858039667       -5.9322165944
 H        -3.4801787667        1.2658172859       -4.8173637783
 H        -4.5895702643        0.0940282866       -5.3487418447
 H        -3.7402936912        2.1336656219       -7.5562939269
 H        -4.8065575654        2.7756897429       -6.3374177009
 H        -7.3048113416        3.0368680012      -10.8048220589
 H        -8.8786755951        3.0823320918      -10.1204557943
 H        -7.8620072729        0.9978888283      -11.9548338512
 H        -9.0664703110        2.2240476270      -12.2410249192
 H       -11.2385970011       -1.0752879737       -9.0941617907
 H        -9.6145155111       -1.0511577253       -8.4000409966
 H       -10.8196045034       -3.6480475423       -9.1247441720
 H       -11.4190620365       -2.8635801604       -7.7988776919
 H       -10.6575702439       -2.7921271149       -5.1438228375
 H       -10.9202914899       -4.1055323524       -3.8828019063
 H       -12.7634432012       -3.1371630803       -3.5065353217
 H       -13.4432055599       -4.1098053578       -4.8556479317
 H       -12.7615607673        1.1631006017       -3.5051458247
 H       -11.7414029023       -0.1704402098       -4.1576236314
 H       -11.3115701965       -1.0196388985       -1.8422664572
 H       -12.1566307999        0.2827821624       -1.2198223915
 H        -9.9461603752        4.1112812647       -3.1163222468
 H       -10.0928667713        4.3928855987       -1.3462982482
 H       -11.0096029177        3.2736795850       -2.2114591016
 H       -10.8666170045        0.9896822317        0.5465776746
 H       -10.8326428140        2.6364361506        0.0317908669
 H        -9.3792056119        2.2506220294        0.7863775017
 H        -7.8883795575        0.1016375128       -1.9360091747
 H        -8.6014175290       -0.4884901636       -0.3073875754
 H        -7.3694171265        0.7952418699       -0.4998017023
 H       -14.8131326963        0.0167756108       -6.5335864907
 H       -13.4054281305        0.6628165301       -5.8054362470
 H       -14.9486567208        1.0675229525       -5.0623553761
 H       -15.5432863970       -2.8479925656       -4.6510743691
 H       -16.1083629565       -1.5560157105       -5.8270674183
 H       -16.3523526342       -1.2745546108       -3.9583703253
 H        -9.4682170527       -5.4751361329       -8.8427952049
 H       -11.1350325173       -5.7892119997       -8.3270888290
 H        -9.9602682756       -6.9252831080       -7.7473873550
 H        -7.7659865351       -4.9974749455       -6.2797324786
 H        -8.7642475248       -6.4977541528       -5.7729300370
 H        -8.9367961975       -4.8782919985       -4.8957866120
 H       -11.8022349415       -0.7835393321      -12.8434685256
 H       -12.1074213565       -0.5407031995      -11.1298722565
 H       -11.6741151172       -2.1468333445      -11.7791491141
 H        -8.0864136372       -0.9631583590      -12.7106478600
 H        -9.4504208963       -0.7501589081      -13.7897112894
 H        -9.0841823387       -2.3012027299      -12.9636296644
 H        -8.9150971534        2.7704668803       -7.1132529399
 H        -7.7501926558        2.5611350666       -5.8269872358
 H        -8.6263957478        1.2136575112       -6.7133700602
 H        -5.5214401362        3.8061040486       -8.7032677458
 H        -6.3782753297        4.1301715562       -7.1549256360
 H        -7.1730663939        4.0854710441       -8.8472397579
 H        -2.4798578884        0.0115665051       -3.7951405925
 H        -0.9116615477       -0.7078918888       -3.9109827725
 H        -2.3090882431       -1.6334948248       -3.5474831274
 H        -0.3188795610       -2.4397134052       -5.8597964781
 H        -0.1742789140       -0.6743887179       -6.1794651379
 H        -0.8332056466       -1.6828207828       -7.3406430211
 H        -5.8741472512       -7.0173950923       -7.6868327839
 H        -6.7402100265       -6.8925134651       -9.1833260883
 H        -6.6744219294       -5.5310137303       -7.9758869052
 H        -3.7517099510       -6.5659470617      -10.9613014925
 H        -4.9666238257       -7.6694846215      -10.1633718509
 H        -3.4275594342       -7.2431130493       -9.4062415463
 H        -2.1182806598        1.0451765697      -11.1092562638
 H        -2.5698782874        0.2339271939       -9.5756948144
 H        -3.8426306075        0.8296223155      -10.6320459006
 H        -4.0857535968       -0.1498669302      -13.1149051610
 H        -2.7744807096       -1.2962155127      -13.6279886741
 H        -2.5358865654        0.3982447696      -13.1802948661
 H         3.3969759978       -3.2401825577      -11.5239590736
 H         3.6547731247       -2.6062891260       -9.9004268010
 H         4.9004551085       -2.3964863252      -11.0837228940
 H         4.6873982023        0.5196417900      -10.6724611651
 H         4.0441215603       -0.3464098487       -9.2656461178
 H         2.9736353390        0.7207445251      -10.1193613100
 H         7.1210582700        3.0214739831      -14.2940850564
 H         8.4390660351        1.9832182701      -14.7534375528
 H         7.3556552656        1.5653511540      -13.4985249721
 H         7.5529089717        1.7024799389      -17.3138752409
 H         6.2956322104        2.7886131816      -17.0758757949
 H         5.9194441915        1.2856245875      -17.6900937341
 H         9.1985838096       -6.0422029181      -15.7171365194
 H         8.2248128306       -5.2911787602      -14.6306324312
 H         9.7868116228       -4.5957088544      -15.0754339712
 H         8.9496592162       -5.9232406726      -17.8324829189
 H        10.2269880137       -4.6589975599      -17.7740790093
 H         8.7482071855       -4.3566736266      -18.7780280174
 H         1.3594649811       -3.7769254202      -18.7859784864
 H         1.5046656165       -2.6477175764      -17.4046128494
 H         1.1324893780       -4.3810370639      -17.1458943729
 H         4.2931004618       -5.5987738866      -18.8984124638
 H         2.8712955007       -5.3539469692      -19.7921841598
 H         2.7939623463       -6.0997788208      -18.3169282673
 Na        3.9110159311       -1.0743028858      -15.8515810884
 Na       -6.7322488861       -1.8281560147       -8.6533078728
