232

 C         4.1653477133       -2.9322063226      -20.2696832248
 C         3.9074204831       -2.9100602509      -18.8150621809
 O         4.0060666659       -1.8557319460      -18.1975998954
 C         3.0684908296       -4.3199750468      -18.2355527371
 C         3.6640462525       -4.5040639648      -16.8052131477
 O         3.3552852939       -3.9239134408      -15.7767332809
 C         4.5637164117       -5.7326147870      -16.5904990658
 C         5.9483433928       -5.3537840420      -16.0892809829
 C         6.6456481175       -4.2621065638      -16.9056207737
 O         6.0012143446       -3.7720669968      -17.7860661907
 C         8.2314009396       -4.0764609942      -16.9014173351
 C         8.4053438312       -2.4412929567      -16.7724072077
 O         8.1271709958       -1.8287976556      -17.7934779570
 C         8.8751914359       -1.8146570556      -15.4289892630
 C         8.5704594716       -0.3545040216      -15.4691369825
 C         7.0237470486       -0.1630025260      -15.3789097774
 O         6.3468914738       -1.1209357272      -15.1016723661
 C         6.4998156047        1.2656339069      -15.7299276420
 C         4.9731138890        1.2914819827      -15.1712440673
 O         4.0588205317        0.9914537185      -15.9374193987
 C         4.6608634796        1.7048764528      -13.6831711345
 C         3.2672470264        1.1936792278      -13.2445745330
 C         3.3144285044       -0.2805907334      -12.7500179192
 O         3.1032286670       -1.2558883866      -13.4462496197
 C         3.2491437514       -0.7081043913      -11.1557506145
 C         1.7295942157       -0.5913499360      -10.8448300455
 O         1.1689096083        0.4227471930      -10.7610510459
 C         0.7517749416       -1.8807007851      -10.8664100296
 C        -0.7112793505       -1.6900679708      -10.4750084381
 C        -1.6907458743       -1.6146792863      -11.7152330491
 O        -1.6132093569       -2.4114024438      -12.6619683070
 C        -2.9518809007       -0.7236218582      -11.6078902030
 C        -4.0883082623       -1.6308360607      -10.9367556432
 O        -4.4482347332       -1.4540263483       -9.8083486358
 C        -4.7916229701       -2.7225822518      -11.6839346372
 C        -4.5398736370       -4.1364790618      -11.1814763807
 C        -5.3418947644       -4.4516191363       -9.9920497867
 O        -6.4271450945       -3.9154286282       -9.9457199220
 C        -4.8780522747       -5.6664400130       -9.0810759092
 C        -3.5338550667       -5.1880737514       -8.4050080994
 O        -2.5296358178       -5.0133221731       -9.0828661762
 C        -3.5288653388       -4.8609710870       -6.8887161057
 C        -2.3616622153       -3.9275548017       -6.6010351338
 C        -2.8257567146       -2.5589742243       -5.9572936910
 O        -4.0036852044       -2.5183028128       -5.6765606117
 C        -1.9546951736       -1.2333474678       -5.5752336015
 C        -2.7443893850       -0.0623624581       -6.3833981002
 O        -2.3589191453        0.4347934058       -7.3969456528
 C        -3.9648318698        0.5312994944       -5.5757845032
 C        -4.7784695420        1.5717030400       -6.4176881501
 C        -5.9490669392        1.1029753228       -7.2317129122
 O        -6.1332254971       -0.1320320424       -7.2119396164
 C        -6.8966883508        2.0923081939       -7.8179496618
 C        -7.6561422862        1.4712449376       -9.1060739774
 O        -7.6786155677        0.2780321414       -9.3166616415
 C        -8.3590917070        2.4576134189      -10.1950550401
 C        -8.8635680085        1.5584080909      -11.3421806661
 C       -10.2112799819        0.8561038080      -11.0865353553
 O       -11.1824852770        1.3657349701      -10.6285245777
 C       -10.3018782176       -0.7299969912      -11.4581166076
 C        -9.3871900713       -1.4317288297      -10.4995873693
 O        -8.2779691265       -1.9228066125      -10.7285009849
 C        -9.8855280098       -1.6045957576       -9.0325885882
 C       -10.2891162787       -3.0883145065       -8.4674962548
 C        -9.1468709411       -3.7139088403       -7.5951863430
 O        -8.0510032727       -3.2359696997       -7.5358697591
 C        -9.6119980509       -5.0212774405       -6.7102610235
 C       -11.1078785153       -4.7243543510       -6.1753447713
 O       -12.0679195746       -5.1478754624       -6.7695935705
 C       -11.1910874083       -3.6300708834       -5.0576454158
 C       -12.5727674701       -3.2250117222       -4.5792134784
 C       -13.0346921059       -2.0060371619       -5.3553193407
 O       -12.5947707424       -1.7391996671       -6.4515570244
 C       -14.2142116471       -1.2316682181       -4.7327489512
 C       -13.6693034864       -0.6458575222       -3.3411297300
 O       -14.1380003197       -1.1398302499       -2.3291402636
 C       -12.4558708349        0.2431250344       -3.4329364325
 C       -11.3949610830       -0.0896106449       -2.2343854811
 C       -10.0845053809        0.6327866005       -2.3525687227
 O        -9.3713852301        0.6746553698       -3.3587842127
 C        -9.5023003782        1.2248147650       -0.9884608787
 C        -8.8823517691        2.7323764221       -1.2935861837
 O        -7.7397213894        3.1186907359       -1.0109127179
 C        -9.9425332766        3.5490984560       -2.0575617119
 C       -10.6187708564        1.5693807368        0.1066983089
 C        -8.5148713056        0.1443675538       -0.4245928734
 C       -14.7573433956       -0.0473124315       -5.5899094132
 C       -15.2397908068       -2.2984411053       -4.3667708634
 C        -9.6790840037       -6.2130578850       -7.7398815349
 C        -8.6110591983       -5.2634524326       -5.5262215627
 C       -11.8209842280       -1.1249241502      -11.2789694204
 C        -9.9680690583       -0.9302781255      -12.9439182927
 C        -8.0392063610        2.2089897964       -6.7131351839
 C        -6.2764775038        3.4417372898       -8.0345242872
 C        -1.8332806543       -0.8498306655       -4.1387674520
 C        -0.6044849174       -1.3965465057       -6.2395510166
 C        -5.9735435240       -5.9543990071       -8.0526305678
 C        -4.6890731017       -6.9154104238      -10.0741111163
 C        -2.7606780406        0.5867362826      -10.8450346362
 C        -3.4975081856       -0.3494828661      -13.0846180984
 C         3.8202753980       -2.1172105498      -10.9015071380
 C         3.9391105190        0.3172130871      -10.2763808975
 C         7.3568728380        2.4242572355      -15.2869773729
 C         6.2716292354        1.3685853060      -17.3286441845
 C         8.9630123669       -4.8995367558      -15.8329662582
 C         8.7211923685       -4.4406718171      -18.2749839269
 C         1.5580500153       -3.6922769513      -18.1872594039
 C         3.1739293933       -5.4793051485      -19.2137617028
 H         3.4369544752       -3.4765042049      -20.7899617660
 H         5.0772424738       -3.4315611999      -20.5657944210
 H         4.2863653195       -1.8793732561      -20.5261509081
 H         4.8390669126       -6.2978235773      -17.5022012973
 H         4.1448829151       -6.5538210209      -15.9749300249
 H         6.5975846894       -6.2625726181      -16.0887992648
 H         5.8882784958       -5.0500665661      -15.0590800890
 H         9.9158712015       -2.1273299056      -15.4179074464
 H         8.4616570647       -2.3646692387      -14.5865342390
 H         8.9106349757        0.1078611863      -16.3821147485
 H         8.9861706050        0.2307019132      -14.6181296453
 H         4.6731332481        2.8413349722      -13.7770775270
 H         5.4804681016        1.3909435041      -13.0351697917
 H         2.5933749574        1.2083284931      -14.1207635840
 H         2.7765785751        1.7851511479      -12.4865735981
 H         1.2661069120       -2.6372254933      -10.2107688574
 H         0.8157643865       -2.3389509074      -11.8795964593
 H        -0.8266578525       -0.7771758545       -9.8713023294
 H        -1.0134989958       -2.5169237672       -9.8707108517
 H        -4.5691370791       -2.6433339534      -12.7856122321
 H        -5.8938715978       -2.6022915362      -11.6887558160
 H        -3.4580663259       -4.3287672056      -11.0929173236
 H        -4.9778490471       -4.8442654125      -11.9483670063
 H        -3.3971774704       -5.8025573039       -6.2879856846
 H        -4.4445739599       -4.4059558626       -6.5392376112
 H        -1.6981259880       -3.7141206041       -7.4469216532
 H        -1.6363896152       -4.3764098227       -5.8786407598
 H        -3.6229161096        0.9461377457       -4.6086534095
 H        -4.6698685860       -0.2732406600       -5.3904618070
 H        -4.0362313321        1.9016466092       -7.1832080337
 H        -4.9065361471        2.4397344911       -5.7309747044
 H        -7.6970176854        3.3046167778      -10.6052439273
 H        -9.1983573862        2.9949665194       -9.8494152947
 H        -8.0178276144        0.9746040637      -11.7214477686
 H        -8.9918724543        2.1923468784      -12.2455672972
 H       -10.6848942859       -0.9072403670       -8.8005425778
 H        -9.0903961833       -1.3017013888       -8.3082617816
 H       -10.5081571872       -3.7058975381       -9.2941330093
 H       -11.1699758829       -2.9484828028       -7.9003983521
 H       -10.7637046583       -2.7120624608       -5.4918955562
 H       -10.5648119048       -3.9734231709       -4.2660496252
 H       -12.4146258865       -2.9181467852       -3.5180828100
 H       -13.2322698000       -4.0612822858       -4.6824412194
 H       -12.6935143865        1.3058196038       -3.2097681896
 H       -11.9527367620        0.4722309622       -4.3663761489
 H       -11.1504924353       -1.1190534367       -2.3529486044
 H       -11.9372306733        0.0626788962       -1.3330559511
 H        -9.4495069387        3.9752473635       -2.9311358096
 H       -10.2125243223        4.4817237168       -1.5399139866
 H       -10.7932907510        2.9043682227       -2.2825380258
 H       -11.0667487701        0.6455428914        0.4666525539
 H       -11.3190086629        2.1974546292       -0.2885081640
 H       -10.2283074647        1.8264673987        1.0651500206
 H        -7.5122529493        0.3599555173       -0.7302307151
 H        -8.7482203635       -0.7943607649       -0.8632894981
 H        -8.7140693189        0.1528933842        0.6446852015
 H       -15.1951124688       -0.4497448689       -6.5224154199
 H       -14.0192505465        0.7199934215       -5.9287341236
 H       -15.5345883385        0.4340991780       -5.0905058430
 H       -14.9467641266       -2.7485169220       -3.3407716678
 H       -15.3519508966       -2.8697855349       -5.3208144914
 H       -16.2762088478       -1.8274098481       -4.4162226265
 H        -8.8794211728       -7.0140842253       -7.6882014627
 H        -9.6082898699       -5.7904059740       -8.8225390349
 H       -10.6877288898       -6.6333239966       -7.6488349522
 H        -8.6784100110       -4.4750526713       -4.7543921593
 H        -7.6632166159       -5.2680280783       -5.9967381059
 H        -8.8771539455       -6.2828278435       -5.0770252033
 H       -12.3914272149       -0.4714302877      -11.9603506531
 H       -12.1853981857       -0.9612840309      -10.2689820122
 H       -12.0137247445       -2.0936762576      -11.5470733421
 H        -9.1895651607       -0.3502782436      -13.3577227479
 H       -10.8429562165       -0.5965812537      -13.6094166850
 H        -9.7512528177       -1.9961354027      -13.1263906811
 H        -8.6235501295        3.1166998867       -6.7807881936
 H        -7.4621587652        2.4224191389       -5.7881806925
 H        -8.6917203352        1.2402720681       -6.5076775957
 H        -5.2670125949        3.4631522829       -8.5508773579
 H        -6.1281053427        3.9331963610       -7.0711925115
 H        -6.9090099914        4.2545438277       -8.4492333353
 H        -2.4597037271       -1.3471304690       -3.4495377764
 H        -2.1252301750        0.2635687391       -4.1437193011
 H        -0.8724712465       -0.9231229209       -3.7155155667
 H        -0.1433533956       -2.3423839480       -5.8657902003
 H         0.0760159669       -0.5720474351       -6.0338621102
 H        -0.7923880215       -1.5178111789       -7.3150904673
 H        -5.6731624613       -6.7387827932       -7.3503004976
 H        -6.9728936399       -6.2130327063       -8.4004314376
 H        -6.1663333720       -5.0987363055       -7.5297045204
 H        -3.9103430690       -6.6231733155      -10.7558006245
 H        -5.6253211257       -7.2295321208      -10.5896425299
 H        -4.2534762189       -7.7806469180       -9.4441099959
 H        -2.2016424060        1.3168790677      -11.3272480385
 H        -2.5303930661        0.4081658911       -9.7879376205
 H        -3.7409729441        1.1127941265      -10.7806389010
 H        -4.5480276348       -0.5321621224      -13.2383680516
 H        -3.1293344806       -1.0371790462      -13.8235155526
 H        -3.1789755957        0.5887535589      -13.4083008208
 H         3.4123453777       -2.7130869996      -11.7193637464
 H         3.5331344855       -2.5032919209       -9.9095586608
 H         4.8605700575       -2.1223922033      -11.0911804034
 H         4.9265437171        0.6761827229      -10.5666765372
 H         4.1172473576       -0.0523382216       -9.2621261834
 H         3.2287181057        1.1738651808      -10.1315085459
 H         6.8403808510        3.3881534057      -15.3639129195
 H         8.3971027193        2.5716374717      -15.7518227210
 H         7.4922187709        2.3030124431      -14.2429920945
 H         7.1584571127        1.1642396581      -17.9671022397
 H         6.0634037562        2.3932838542      -17.6578818617
 H         5.5457768572        0.7285287267      -17.7091615624
 H         9.9723776265       -5.0463594284      -16.2095650798
 H         8.4060961616       -5.8347754396      -15.7274534274
 H         9.1799004201       -4.4983614600      -14.8129764048
 H         8.5010412739       -5.5798967234      -18.5062465334
 H         9.7788853139       -4.2990320949      -18.4279655931
 H         8.1727681626       -3.8078542717      -18.8838894981
 H         1.1937364846       -3.4768687789      -19.1120588503
 H         1.5076931956       -2.7780147310      -17.5953033288
 H         0.9263070175       -4.4145479780      -17.7461134575
 H         4.1827832941       -5.7519944591      -19.4304071288
 H         2.7316700497       -5.1343639595      -20.1067975361
 H         2.6855151932       -6.3683998672      -18.9708906960
 Na        4.2115185264       -1.6342124203      -15.5730816635
 Na       -6.5786121413       -1.8041926134       -8.7096999054
