232

 C         4.3637980387       -2.8201659372      -20.1405729479
 C         3.8278988315       -2.9505462732      -18.6926156917
 O         3.9908713873       -1.9706422474      -17.9884759007
 C         3.0299502433       -4.2967624363      -18.2289302672
 C         3.6708457671       -4.6138469118      -16.8439079683
 O         3.4542930091       -3.8463594621      -15.8728680505
 C         4.4462641594       -5.8563822545      -16.7473063982
 C         6.0158509057       -5.6483801906      -16.4643872360
 C         6.6594381121       -4.3874871974      -17.2114092108
 O         5.9685527602       -3.6386022899      -17.8821899114
 C         8.1516873115       -4.0306276613      -17.0298573967
 C         8.3428501834       -2.4768642662      -16.8383851637
 O         8.0966061910       -1.7161425806      -17.7504639092
 C         8.9252305203       -1.8263064797      -15.4997266049
 C         8.5941278869       -0.3621394949      -15.2954575912
 C         7.0534758456       -0.0576794482      -15.3378338893
 O         6.3017004294       -0.9382935675      -14.8868027537
 C         6.2897273484        1.2095528916      -15.8382800494
 C         4.8288922304        1.1534469051      -15.1785518976
 O         3.8145759413        0.8437667506      -15.7451433381
 C         4.7827587025        1.5500701606      -13.6372586447
 C         3.3857819819        1.3101725343      -13.1115777221
 C         3.2223821291       -0.2343949244      -12.8608441005
 O         2.9219885175       -1.0553252806      -13.7060980341
 C         3.2191408903       -0.6003478571      -11.3557903035
 C         1.5921676044       -0.5948357473      -11.0634434774
 O         0.9968173254        0.4430106573      -10.6850785093
 C         0.7806914218       -1.8578713665      -11.0991666868
 C        -0.6793540277       -1.5527853970      -10.5769398783
 C        -1.6855995226       -1.4921761871      -11.7888188616
 O        -1.4455897537       -2.0082198434      -12.8381417706
 C        -3.0270422432       -0.6609465535      -11.6964396432
 C        -4.0954504327       -1.5221287617      -10.9885624871
 O        -4.3901052358       -1.3174789300       -9.8019195218
 C        -4.6892841383       -2.7063075846      -11.7513523916
 C        -4.3235476552       -4.1067340528      -11.1086201372
 C        -5.1255222985       -4.6614307248       -9.9634456530
 O        -6.1727913176       -4.0954681778       -9.6820002082
 C        -4.6744608838       -5.8380136910       -9.0297968026
 C        -3.3882706863       -5.1801354001       -8.3701127976
 O        -2.3764303008       -5.0272845553       -9.0689077734
 C        -3.3047894979       -4.8427805457       -6.8184114336
 C        -2.4080881667       -3.6338161350       -6.6206960541
 C        -2.9888987776       -2.4846748297       -5.8542532909
 O        -4.0546760907       -2.4494854493       -5.3190515439
 C        -2.0307127185       -1.2367974560       -5.6707047180
 C        -2.6633617736        0.0141457136       -6.2380383081
 O        -2.2885851293        0.4714989236       -7.3263268408
 C        -3.9834261542        0.4423427570       -5.6398210069
 C        -4.7290118115        1.5666379703       -6.4610086366
 C        -5.9088489581        0.9870723667       -7.1835624650
 O        -6.2098401429       -0.1577076664       -7.1699654029
 C        -6.9586698649        2.0369634596       -7.7367078913
 C        -7.5857107413        1.5126178738       -9.1105935968
 O        -7.2839479130        0.3700151491       -9.4261356312
 C        -8.4396334343        2.4389927034       -9.9649481387
 C        -8.9542640452        1.6970858831      -11.2401620280
 C       -10.2698334834        0.9171631896      -10.9408602875
 O       -11.2092912263        1.6499057006      -10.5548281911
 C       -10.4945974066       -0.6323138157      -11.4075924127
 C        -9.4825419175       -1.4236680686      -10.4620277437
 O        -8.3972070019       -1.8225161597      -10.8827662551
 C        -9.7986751751       -1.7214599458       -9.0634133359
 C       -10.0016642754       -3.2185148904       -8.8008557604
 C        -9.0638934106       -3.7323740392       -7.6494252314
 O        -7.9788537636       -3.1952729975       -7.2953815444
 C        -9.6146274765       -4.9939342279       -6.8367863964
 C       -10.9846911741       -4.6474538704       -6.2290719113
 O       -12.0026316988       -5.2815289691       -6.5638660323
 C       -11.0938169538       -3.8832928210       -4.8945508283
 C       -12.5908363669       -3.4031599923       -4.6884376924
 C       -13.0243865568       -2.1221026165       -5.3605338101
 O       -12.4522596108       -1.6256153546       -6.3373614899
 C       -14.2115063655       -1.3531185014       -4.6510207848
 C       -13.6199310034       -0.6367142103       -3.3402238015
 O       -14.0491985842       -0.7952889553       -2.2313960567
 C       -12.4191286641        0.2133372523       -3.4875196726
 C       -11.4898705736       -0.1502582633       -2.3639595693
 C       -10.1854260773        0.6339453746       -2.2859071615
 O        -9.5392564141        0.8591220167       -3.2974508042
 C        -9.6623283568        1.1980601075       -0.8916172414
 C        -8.9647152077        2.5665420589       -1.2352875046
 O        -7.8735653717        2.8048420123       -0.8554600300
 C        -9.8062818237        3.6106817085       -2.0645666035
 C       -10.7384419363        1.4221057941        0.1392221968
 C        -8.5244692558        0.3296323383       -0.2812203036
 C       -14.6168860225       -0.2292823729       -5.5359296561
 C       -15.5180811928       -2.1995418841       -4.2520412665
 C        -9.6463653703       -6.2140866006       -7.7797109222
 C        -8.6072783936       -5.3071004898       -5.6430751350
 C       -11.9826945937       -1.0572445121      -11.1232337706
 C       -10.0796747649       -0.7891832324      -12.9104059195
 C        -8.0748721770        2.2937793645       -6.7013363975
 C        -6.2513542412        3.3750774047       -8.0617755476
 C        -1.7243191268       -1.2576060050       -4.0566739176
 C        -0.6473569961       -1.4368570775       -6.4066127470
 C        -5.8527617939       -6.0688911047       -8.0103205142
 C        -4.4250502847       -7.1606710711       -9.8199864902
 C        -2.9607631660        0.6769805867      -10.8399321459
 C        -3.4567337422       -0.2958646001      -13.0999100006
 C         3.9142408026       -1.9983496833      -11.1558560460
 C         3.9222459093        0.4877863131      -10.5181048465
 C         7.0495099985        2.5565391431      -15.3704525350
 C         6.1797634104        1.1998316691      -17.3702327142
 C         8.7857198004       -4.8822318326      -15.8574002954
 C         8.7875461666       -4.4499863727      -18.4904400532
 C         1.5081648469       -3.9279316777      -17.9637535969
 C         3.1403424214       -5.4829633526      -19.2404455164
 H         3.4077458276       -2.8349615400      -20.7988368526
 H         4.8134636889       -3.7704195026      -20.5410302785
 H         4.9723773164       -1.9503663531      -20.2978895818
 H         4.3765275475       -6.7023566448      -17.4014608258
 H         4.0967269870       -6.2756678062      -15.8294844284
 H         6.5207299730       -6.5986291868      -16.5953742763
 H         6.1672651224       -5.3989084686      -15.3736426306
 H        10.0125711948       -1.8957094822      -15.7253855264
 H         8.8463349460       -2.4439969870      -14.5788885865
 H         8.8562865149        0.1702348652      -16.2444126971
 H         9.1479468756        0.0541489911      -14.4805758102
 H         5.1519975837        2.5075453719      -13.4354715036
 H         5.5464407450        0.8819885405      -13.2044095296
 H         2.6256051571        1.6758165172      -13.7332146325
 H         3.2500798134        1.9164675105      -12.1859295205
 H         1.3568376119       -2.6620386661      -10.6250908966
 H         0.7444248281       -2.1681819787      -12.1569529113
 H        -0.8874564474       -0.7584565749       -9.8539125108
 H        -0.8157524139       -2.5326117759      -10.0361226913
 H        -4.4033807411       -2.7056510328      -12.7869344718
 H        -5.7779952346       -2.5294332697      -11.8372288297
 H        -3.2225313626       -4.0204440545      -10.9860299096
 H        -4.4783223228       -4.9085331860      -11.8489905490
 H        -2.6573768286       -5.6224368375       -6.4551917089
 H        -4.2247362421       -4.9024636840       -6.1849961664
 H        -1.9043653742       -3.1755201850       -7.4762421106
 H        -1.5731564069       -4.0241004587       -6.0646688674
 H        -3.6853029642        0.7537387436       -4.6252013929
 H        -4.6799960607       -0.4398162834       -5.5930658234
 H        -3.9008944004        1.9620785830       -7.0591353505
 H        -5.0669984865        2.2890536280       -5.7427331115
 H        -7.8337957657        3.2583230994      -10.2509641663
 H        -9.2183968393        2.9674687806       -9.2990472185
 H        -8.0920768581        1.0810119381      -11.5409369499
 H        -9.0369460019        2.3181809755      -12.1283606029
 H       -10.5199960058       -1.0071582020       -8.6275084813
 H        -8.8727464720       -1.4531587501       -8.5114160010
 H        -9.7947504724       -3.7215200882       -9.8028365767
 H       -11.0953809905       -3.3522412069       -8.5218880099
 H       -10.3892508722       -3.0781655316       -4.8283873038
 H       -10.8258378990       -4.6611091125       -4.1471978673
 H       -12.8088257831       -3.3279291958       -3.6451247399
 H       -13.1881540936       -4.1930672408       -5.1850859303
 H       -12.4945739492        1.2788431359       -3.4757606014
 H       -11.9077010370        0.1346732020       -4.4326582657
 H       -11.5317104939       -1.2650813780       -2.4105311897
 H       -12.0804478786        0.2461945209       -1.5060127206
 H        -9.1866662216        4.2018835316       -2.7492961625
 H       -10.1073509594        4.4359701137       -1.4194957686
 H       -10.6933548019        3.0860022362       -2.4754616011
 H       -11.0484161098        0.5897389566        0.7749785015
 H       -11.5827426787        1.9236210521       -0.3856635628
 H       -10.3378850522        2.1689012263        0.7776109231
 H        -7.7258368616        0.6237460264       -0.9422333881
 H        -8.6444919496       -0.7585820138       -0.4584075380
 H        -8.4602710373        0.6219537343        0.7710562899
 H       -15.1218132070       -0.6460807747       -6.3629039629
 H       -13.8227683476        0.3639193025       -5.9152878631
 H       -15.3783669321        0.4791608999       -5.0547732922
 H       -15.2082614561       -3.0724628587       -3.8089970852
 H       -16.0840625457       -2.2297804790       -5.1269071900
 H       -16.1044056797       -1.6733400576       -3.5811747426
 H        -8.8727896037       -6.8943500825       -7.5021378945
 H        -9.4257062023       -5.9269439775       -8.7635162193
 H       -10.6105845087       -6.7854834291       -7.7289499037
 H        -8.2489049742       -4.3266598971       -5.4525219202
 H        -7.7660220616       -5.9182303993       -5.9828341554
 H        -9.0558260170       -5.7055560874       -4.7965340318
 H       -12.7640496382       -0.6150024604      -11.7024139101
 H       -12.1612934429       -0.9128676914      -10.0820147557
 H       -12.0408257352       -2.1792320781      -11.2529246033
 H        -9.2087299185       -0.0629630125      -13.1500683502
 H       -10.7787237878       -0.6622823236      -13.6646570784
 H        -9.6513948366       -1.7804356032      -12.9963521149
 H        -8.7759298677        2.9734961088       -7.2784262864
 H        -7.8645778027        2.9235638091       -5.8160207299
 H        -8.5543403352        1.4238011972       -6.3102016290
 H        -5.4563800227        3.3960927887       -8.7338430872
 H        -5.8726576272        3.8977654762       -7.1952676964
 H        -6.9643428113        4.0922949902       -8.3309730590
 H        -1.8919393181       -2.3569417555       -3.6181669998
 H        -2.2594439204       -0.6091650157       -3.4956833643
 H        -0.6049837494       -1.0485479326       -3.8743267763
 H         0.0094303001       -2.2402055058       -6.0265254200
 H        -0.1796136074       -0.4896870938       -6.1060624688
 H        -0.7804079885       -1.4186311344       -7.4998789768
 H        -5.5961840506       -6.8490081238       -7.3370427139
 H        -6.8397660923       -6.1861543407       -8.3950637320
 H        -6.0528516383       -5.1214839774       -7.4009242653
 H        -3.7522991842       -6.9305478756      -10.7020851188
 H        -5.3866228996       -7.5317944829      -10.2197324484
 H        -4.0190492623       -7.8564104693       -9.1768873777
 H        -2.0292835943        1.2618735963      -11.0979120666
 H        -2.9769915215        0.4094900767       -9.7838721287
 H        -3.7317945470        1.4294532455      -10.9717467706
 H        -4.4591616740       -0.6808211477      -13.3251972259
 H        -2.9220462344       -0.7555359364      -13.9053483601
 H        -3.3870414128        0.7980865188      -13.2942659776
 H         3.5334418127       -2.7880130958      -11.8617312337
 H         3.5976860269       -2.2391620657      -10.1251412180
 H         5.0592975534       -1.9168257526      -11.2002746477
 H         4.8951728169        0.8366761985      -10.9687451134
 H         4.2481761356        0.0185951953       -9.5565796793
 H         3.3464454378        1.3674650184      -10.2441958253
 H         6.4922763502        3.4705334877      -15.6221525730
 H         7.8292416708        2.6969449892      -16.0600835118
 H         7.4761103547        2.6699697467      -14.3214648472
 H         7.1102243716        1.1525516258      -17.9613689754
 H         5.5733282699        1.9886522839      -17.7706205757
 H         5.7344665000        0.2242330619      -17.7348678955
 H         8.4050634031       -5.9594819437      -15.7331181691
 H         8.5417879859       -4.2731248817      -15.0182677543
 H         9.8994580768       -4.9648865052      -16.1010211040
 H         8.6933460059       -5.4401592046      -18.5934626065
 H         9.8551672897       -4.1671049392      -18.5509484337
 H         8.2519141586       -3.8676967957      -19.3090136906
 H         1.0485680008       -3.5047290396      -18.9627178217
 H         1.4171089289       -3.0868456281      -17.3107670640
 H         0.8357234933       -4.7670227703      -17.7573560169
 H         4.2011089553       -5.7947353266      -19.3266953011
 H         2.7286351839       -5.2287144179      -20.2586838006
 H         2.6390776391       -6.4368193379      -18.8753510737
 Na        4.0857461129       -1.7430717713      -15.4768177660
 Na       -6.6960993478       -1.9227008111       -9.1528230781
