232

 C         4.2191335065       -2.3444882633      -19.9171770901
 C         3.4538494733       -2.5765194221      -18.6372051823
 O         3.1765387571       -1.6320426505      -17.9739770198
 C         3.0766843715       -4.1503320410      -18.1709753624
 C         4.1401723805       -4.5038046549      -17.0887823634
 O         4.2560998261       -3.9105210028      -15.9792208365
 C         4.8228708391       -5.8197187454      -17.2232896985
 C         6.2022552038       -5.7259405799      -16.5523265460
 C         6.8669185530       -4.6113384064      -17.3215237656
 O         6.2435272190       -3.9776421031      -18.1151367626
 C         8.3140615637       -4.2511600962      -17.1428899441
 C         8.1702344942       -2.6376068825      -16.8383356007
 O         7.6077743995       -1.9314281484      -17.6629440861
 C         8.8777100427       -1.8950919922      -15.5882308293
 C         8.2593883415       -0.4911246404      -15.4249173329
 C         6.6492750374       -0.3746449614      -15.3883075852
 O         5.9873556637       -1.3254804305      -15.0488976216
 C         6.0826949435        0.9606063689      -16.0146788008
 C         4.6462473631        1.2700379609      -15.3385195807
 O         3.6594327787        1.0501213929      -16.0252591110
 C         4.4260366299        2.0641678329      -14.0098775827
 C         3.1541621550        1.5414917445      -13.2351498366
 C         3.0430875268       -0.0547310241      -12.9245856176
 O         2.7050393543       -0.8436652475      -13.7720534751
 C         2.9711921465       -0.5613933875      -11.4133776141
 C         1.3399798978       -0.4492951471      -10.9789122236
 O         0.8259039555        0.5101705539      -10.5832124311
 C         0.4832506558       -1.7799813776      -11.1605106144
 C        -0.9775948645       -1.6946920905      -10.7220687239
 C        -1.8009260414       -1.2439330996      -11.9048607543
 O        -1.3574601919       -1.3112579020      -13.0467154932
 C        -3.2425727317       -0.5703498273      -11.6488435104
 C        -4.1382549855       -1.7174597237      -11.0388001553
 O        -4.7069699897       -1.3799241487      -10.0447234906
 C        -4.3348028157       -3.0065199275      -11.8378581883
 C        -3.8608036391       -4.3243938686      -11.1437924177
 C        -4.7395709434       -4.7279707628       -9.8868807101
 O        -5.7620941392       -4.2198042612       -9.5344108352
 C        -4.2671186607       -5.9639967291       -9.0956228909
 C        -2.9327907260       -5.3510587769       -8.3639857315
 O        -1.8657048283       -5.4344557348       -8.8957687062
 C        -3.0838321907       -4.7915746700       -6.9569399375
 C        -2.1003541747       -3.7221350776       -6.2930580155
 C        -2.6129411855       -2.4882617956       -5.5489110944
 O        -3.6543618511       -2.5416175269       -4.8777383510
 C        -1.7936644360       -1.1790314026       -5.4135291894
 C        -2.8135797945       -0.0112020070       -6.1337288944
 O        -2.4372790403        0.6723911371       -7.0306256129
 C        -4.1815622956        0.0461082148       -5.5149922468
 C        -4.9339439112        1.2617284338       -6.0804255702
 C        -5.9084700469        0.9061801860       -7.1590078446
 O        -6.0653014537       -0.3050233264       -7.4125341374
 C        -6.8827719915        1.9906479647       -7.7657240431
 C        -7.3897780620        1.6077578923       -9.2719688486
 O        -6.9211066314        0.6787526301       -9.8832484161
 C        -8.5355833780        2.5071555178       -9.9167208247
 C        -9.2543140729        1.7737024079      -11.0847732449
 C       -10.5808053331        1.1319195986      -10.6714904516
 O       -11.3387357387        1.5572712487       -9.8799535729
 C       -10.8024380481       -0.4148603604      -11.2489046850
 C        -9.6657270656       -1.2883051867      -10.4740704477
 O        -8.5129739645       -1.3154557738      -10.8107903714
 C       -10.1257553239       -1.8802896225       -9.0947122169
 C        -9.7743375348       -3.3888727922       -9.0613457990
 C        -9.0594844013       -3.7463002922       -7.6891054211
 O        -8.0316185589       -3.1690325164       -7.4305276588
 C        -9.3897849701       -4.9623727696       -6.7921237320
 C       -10.9367095441       -4.8117324358       -6.3231797896
 O       -11.7949339827       -5.1739055276       -7.0308504930
 C       -11.1601582866       -4.0112286543       -4.9839638458
 C       -12.6184098597       -3.6307050846       -4.6661777209
 C       -12.9140224459       -2.2440962239       -5.3021305405
 O       -12.2656079345       -1.8156927640       -6.2262769624
 C       -14.1551955856       -1.4600555485       -4.7205304866
 C       -13.7002810266       -0.7266179614       -3.3620754284
 O       -14.4457745301       -0.6266965611       -2.3949528201
 C       -12.3286970240        0.0770487001       -3.4247163725
 C       -11.4019599531       -0.2665894804       -2.2688086634
 C       -10.1924736393        0.7585557661       -2.1878496084
 O        -9.7654473772        1.1701291422       -3.2636048958
 C        -9.6825804050        1.2806004135       -0.7950756896
 C        -8.8216442989        2.6630940978       -1.0357025761
 O        -7.6951210736        2.7228634797       -0.5604114886
 C        -9.6597331357        3.8544002845       -1.5272187578
 C       -10.8500247876        1.6623952348        0.2145409637
 C        -8.7690980447        0.2260958375       -0.0953846756
 C       -14.5025559223       -0.2533437471       -5.6495217721
 C       -15.2321241347       -2.4366684968       -4.3889075845
 C        -9.3316048957       -6.1842506376       -7.7085586503
 C        -8.4184331527       -5.2371515298       -5.6150404793
 C       -12.2773934337       -0.8726392835      -11.0708310563
 C       -10.4623072731       -0.4540907389      -12.7781325529
 C        -7.9912769404        2.0932113148       -6.8241814706
 C        -6.0361414015        3.2269385879       -7.7443433694
 C        -1.5950576389       -0.7726372171       -3.9293968323
 C        -0.3034188492       -1.1599219667       -6.1425362655
 C        -5.3486448066       -6.5562217087       -8.2133529242
 C        -3.7383343843       -7.0673598055      -10.1503567872
 C        -3.1164929035        0.4815093284      -10.6343984723
 C        -3.8483042211       -0.1507400666      -13.0217551708
 C         3.5744848380       -1.9761213524      -11.3068045890
 C         3.8174249250        0.4585278275      -10.5388309015
 C         6.9144892271        2.1943276133      -15.8479763011
 C         5.8465141745        0.7317174340      -17.6173970330
 C         9.1817084668       -5.0225392514      -16.1890867611
 C         9.0878288932       -4.4035645227      -18.4965891645
 C         1.7084235179       -4.1648112745      -17.3718853062
 C         2.9291865306       -5.1992060412      -19.2705934946
 H         3.4902117485       -1.8246818809      -20.5517202843
 H         4.4642454975       -3.3085422078      -20.3308314406
 H         4.9992331554       -1.5347486077      -19.7677726166
 H         4.9101957492       -6.2283544109      -18.2325937124
 H         4.2221987507       -6.4365394433      -16.5940263673
 H         6.8748886468       -6.6147745041      -16.5750270774
 H         6.0955552049       -5.5074566576      -15.4742810810
 H         9.9667738489       -1.7309651693      -15.6337247694
 H         8.6163612389       -2.5351119906      -14.6843801566
 H         8.6289510796        0.2509748126      -16.1466215374
 H         8.5826648553       -0.1244842321      -14.4615389917
 H         4.3413709292        3.0584117226      -14.4194133223
 H         5.3268098955        2.1439772853      -13.4561450800
 H         2.2062997698        1.6412411891      -13.8304390526
 H         3.0251783674        2.1363000352      -12.3411535720
 H         1.1516344437       -2.4415472311      -10.6454941457
 H         0.6991360076       -2.0799092720      -12.1604961212
 H        -1.0467250479       -0.9800977374       -9.8433196329
 H        -1.3633998348       -2.6725811152      -10.4018554972
 H        -3.8214735323       -2.9135719248      -12.8185760724
 H        -5.3971919564       -3.1432892858      -12.0243166245
 H        -2.7873472721       -4.3797866687      -10.8166234544
 H        -3.9042787013       -5.0477752976      -11.9610582310
 H        -3.1409275997       -5.7105686767       -6.3734113720
 H        -4.1424207984       -4.4748518403       -6.9264911913
 H        -1.5019302159       -3.3123959050       -7.1208922496
 H        -1.4856034311       -4.3088022821       -5.6428341396
 H        -4.0498316329        0.0930480654       -4.3782098486
 H        -4.7577864587       -0.8337823889       -5.7604704155
 H        -4.1967778104        1.9488374273       -6.3993787394
 H        -5.4577833684        1.6078401635       -5.1285568806
 H        -8.0548004042        3.4319708792      -10.3657967606
 H        -9.2383718447        2.8463087198       -9.2126670951
 H        -8.5773115229        1.0195646447      -11.5374560438
 H        -9.4518079266        2.5004076948      -11.8768844783
 H       -11.1233061471       -1.6014250529       -8.8921103918
 H        -9.5065178337       -1.4029258245       -8.2716176534
 H        -9.0421539423       -3.6853439139       -9.9011988639
 H       -10.7568920149       -3.9284871641       -9.2319878964
 H       -10.4832394780       -3.1670852388       -4.9138900307
 H       -10.7481233375       -4.7034287944       -4.2378039991
 H       -12.6634177174       -3.6770381483       -3.5530236262
 H       -13.2996236993       -4.3483976509       -5.0722524804
 H       -12.4652582004        1.1720261332       -3.4345592797
 H       -11.8514262677       -0.2367412037       -4.3172751104
 H       -11.2297561877       -1.3790227225       -2.1969047572
 H       -12.1424313745       -0.1027021109       -1.4553230574
 H        -8.9469224658        4.5918537073       -1.9791300172
 H       -10.2670147819        4.3932042719       -0.7412173655
 H       -10.3812453009        3.5204333279       -2.3102887123
 H       -11.3270033489        0.7685555015        0.5274488868
 H       -11.5975292306        2.3712160231       -0.0334810180
 H       -10.3015024944        2.2263962288        0.9741833460
 H        -8.3812252546       -0.4914370799       -0.7943271560
 H        -9.5061896415       -0.2247060583        0.5712096366
 H        -7.9798563499        0.7493115529        0.4998076393
 H       -14.7311121712       -0.6037515675       -6.6567102297
 H       -13.5932648212        0.3968592657       -5.7421474759
 H       -15.2879687661        0.3658363612       -5.3810320372
 H       -14.7684139788       -3.2582858057       -3.9352628029
 H       -15.6394872690       -2.8965687416       -5.2317701569
 H       -15.8825716504       -2.0566877253       -3.7133995534
 H        -8.3214465952       -6.5815606169       -7.8240242471
 H        -9.8375302324       -5.9468264864       -8.6994559284
 H        -9.8255994293       -7.0064154511       -7.2983207204
 H        -8.4055590726       -4.4356962278       -4.9035912166
 H        -7.4542688704       -5.4259401172       -5.9216370090
 H        -8.8156572360       -6.1860888499       -5.1800259823
 H       -12.9846606125       -0.3020976708      -11.7080144727
 H       -12.5934179597       -0.7285794396      -10.0336348614
 H       -12.3755922060       -1.8728501567      -11.3029403064
 H        -9.4684406162       -0.5652031505      -13.0482465952
 H       -10.9692634230        0.4463831175      -13.2602169444
 H       -11.0438586265       -1.2303889868      -13.2535941878
 H        -8.5308250528        2.9877493754       -6.8506787780
 H        -7.5571738014        1.9512667402       -5.8468352078
 H        -8.6858288197        1.1754312470       -6.8408363724
 H        -5.0511090634        3.1709974534       -8.1478177368
 H        -5.8341753326        3.3496182884       -6.7377560246
 H        -6.4333420520        4.1181484525       -8.1169293939
 H        -0.8294389905       -1.3172298338       -3.5222633394
 H        -2.5442066357       -1.1895803944       -3.3213554138
 H        -1.5094283179        0.3210127826       -3.8460933993
 H         0.4468166787       -1.8665477595       -5.6765994726
 H        -0.0586324505       -0.1380296007       -5.9147823048
 H        -0.3962588364       -1.1602513687       -7.2427257219
 H        -4.9091269746       -7.2810315452       -7.4983437002
 H        -6.0102470450       -7.1402607801       -8.9014795030
 H        -5.8752723627       -5.8728338615       -7.6386277263
 H        -2.9361598852       -6.6564860569      -10.7099784683
 H        -4.5286116512       -7.2982366174      -10.8769304100
 H        -3.4640162682       -8.0296019743       -9.5957709884
 H        -2.3464161186        1.1179172044      -10.9572366964
 H        -2.6901557211        0.1662476394       -9.6845196512
 H        -4.1020203343        0.9987980836      -10.4494154810
 H        -4.4397414519        0.7855322760      -12.8981182174
 H        -4.4766377593       -0.9655773579      -13.3819193568
 H        -3.2144422716        0.0816480805      -13.8493293990
 H         3.2145708277       -2.5934495406      -12.1858921498
 H         3.1750406265       -2.5316889066      -10.3884230927
 H         4.6590055265       -1.8659003857      -11.1587266927
 H         4.7782998678        0.6305594347      -11.0649609803
 H         3.9309220340        0.1371220401       -9.4792008010
 H         3.5095350754        1.5194821528      -10.5836545165
 H         6.2869608308        3.0641096080      -16.0918872905
 H         7.8561226195        2.3385022327      -16.5028055117
 H         7.2396565170        2.2189933655      -14.8437293050
 H         6.7575163435        0.2648753181      -18.0331914633
 H         5.5301850788        1.7091760960      -18.0466284347
 H         5.0909980921        0.0570676360      -17.9703600781
 H        10.2280149594       -4.7234355762      -16.3807720066
 H         8.9113282852       -6.0210202673      -16.5437330607
 H         8.7749432914       -5.0656772979      -15.2116936488
 H         9.3096590133       -5.5311336060      -18.6991715814
 H         9.9348676805       -3.7686857930      -18.5258542971
 H         8.4470292951       -4.1198790470      -19.2637099732
 H         0.8649880523       -3.9311010778      -17.9669028727
 H         1.7853496613       -3.3933102965      -16.5266061384
 H         1.4922651070       -5.1483713605      -16.8454122401
 H         3.9067432713       -5.3477551058      -19.7883437005
 H         2.1527374774       -4.9742362319      -20.0384589274
 H         2.5925465293       -6.0738051044      -18.6935937583
 Na        3.7241143564       -1.7383292303      -15.5961015848
 Na       -6.7264501092       -1.7784786295       -8.9254535153
