232

 C         4.0951203446       -2.3091887665      -19.9546275993
 C         3.3765615700       -2.6363639177      -18.5536927332
 O         3.1588019240       -1.7130503032      -17.7785512273
 C         3.0978583259       -4.0898549895      -18.1378030797
 C         4.1320932354       -4.5276815651      -17.0818796948
 O         4.4172247889       -3.6941761571      -16.2585020389
 C         4.8397350332       -5.9294231682      -17.0643557132
 C         6.3521079942       -5.7525376094      -16.6215953110
 C         6.9355047259       -4.5968347907      -17.4602730718
 O         6.2418054293       -3.9672091977      -18.2766795221
 C         8.4488176518       -4.1869224635      -17.1715242605
 C         8.2599043208       -2.6536207652      -16.7870404188
 O         7.6196548031       -2.0018452624      -17.5459109882
 C         8.6986644493       -2.0066481111      -15.4871468076
 C         8.1325409092       -0.5636179247      -15.4060161920
 C         6.5969954639       -0.4444324501      -15.5676869630
 O         5.8854069190       -1.3314373908      -15.1951329602
 C         5.9620378878        0.9273713442      -16.0504135153
 C         4.5041754780        1.2483941324      -15.4577785275
 O         3.5349048785        1.0678131127      -16.1279590150
 C         4.4098085891        1.8849295288      -14.0432007327
 C         3.1354153873        1.4093652259      -13.3468824753
 C         2.9270126329        0.0090988865      -12.9305437405
 O         2.7781859064       -0.8595814119      -13.8275224103
 C         2.8756722676       -0.4887373515      -11.4887269708
 C         1.3940407480       -0.5384119692      -11.0565410958
 O         0.8557135122        0.4815790524      -10.5738088014
 C         0.5588091517       -1.8588391147      -11.1980733858
 C        -0.8429361409       -1.6603815547      -10.7519703848
 C        -1.8300834032       -1.1862623918      -11.9062035953
 O        -1.3722332665       -1.1809769245      -13.0034522858
 C        -3.2805354680       -0.5737012054      -11.6393895779
 C        -4.2521147874       -1.7210515029      -11.0425621988
 O        -4.7436197624       -1.6270385596       -9.9181716922
 C        -4.3950360639       -2.9694375325      -11.9016460552
 C        -3.8820665283       -4.2095430802      -11.0981484118
 C        -4.6884749416       -4.6755000821       -9.9312313306
 O        -5.6517790076       -4.0742667211       -9.4842493526
 C        -4.0797457941       -5.9516677595       -9.1768559174
 C        -2.8016137588       -5.4026942147       -8.3251759273
 O        -1.7670708993       -5.4899541047       -8.9095129687
 C        -3.0909783240       -4.6200049470       -6.8771741163
 C        -1.9893183535       -3.7130990695       -6.3128762206
 C        -2.5686385252       -2.5390083432       -5.4647100105
 O        -3.5155977750       -2.6419521135       -4.7396681078
 C        -1.8642354556       -1.0400275344       -5.4540341489
 C        -2.8221886222       -0.1459363621       -6.1250356730
 O        -2.4517904656        0.6427431854       -7.0024465714
 C        -4.1957149274       -0.1001210605       -5.4941559328
 C        -4.9713145813        1.1729120921       -6.0304836442
 C        -5.9122183675        0.7716687018       -7.1884756692
 O        -5.9966873194       -0.3912117969       -7.5280212226
 C        -6.7975377463        1.9966075554       -7.6938610401
 C        -7.3457085932        1.5968114469       -9.1975572836
 O        -6.8777586236        0.6988726113       -9.8189890350
 C        -8.4896648312        2.4574747493       -9.8312521405
 C        -9.2474671532        1.7011711494      -10.9769078287
 C       -10.5598311394        1.0598331237      -10.5465267416
 O       -11.2925671195        1.5714105496       -9.6848676483
 C       -10.8448128046       -0.4205330490      -11.1649194938
 C        -9.8232986305       -1.2158791269      -10.3817186042
 O        -8.6130956369       -1.2934983996      -10.6954416462
 C       -10.1982185600       -1.9197183461       -9.0646526490
 C        -9.8048969246       -3.4357939396       -8.9605843498
 C        -9.0093982464       -3.7932989529       -7.6800251153
 O        -8.0827863924       -3.0605939344       -7.4766670043
 C        -9.3911699583       -4.9833807286       -6.7973661359
 C       -10.9196345401       -4.7689188012       -6.3823782817
 O       -11.7613710920       -5.0537268155       -7.2348759679
 C       -11.1607806874       -4.0801246423       -5.0425942121
 C       -12.5959858254       -3.6185054128       -4.7210799192
 C       -12.8897509902       -2.2644829563       -5.4242618646
 O       -12.1720047443       -1.8979761772       -6.3304350967
 C       -14.0221217268       -1.4761398895       -4.7620143848
 C       -13.5835639568       -0.6907978742       -3.4063596613
 O       -14.3264852755       -0.7449419685       -2.4619296401
 C       -12.3575415032        0.1769524844       -3.3464826819
 C       -11.4861562513       -0.0809714344       -2.0994682389
 C       -10.3024907706        0.8908311281       -2.1258671704
 O        -9.7829711506        1.1956272767       -3.1651458161
 C        -9.7278831496        1.2877903503       -0.6714472033
 C        -8.8626734194        2.6277147191       -0.9211803990
 O        -7.7202063822        2.7001084809       -0.6446953997
 C        -9.4679318831        3.9576908325       -1.4791623271
 C       -10.8916936078        1.5596412876        0.1833669341
 C        -8.8431524813        0.1833914428       -0.1271255974
 C       -14.5596479652       -0.3443346265       -5.6497351994
 C       -15.1785557252       -2.4348359240       -4.3888038798
 C        -9.3144480346       -6.3163074697       -7.6223598969
 C        -8.3255843543       -5.1237069343       -5.7654712488
 C       -12.2701239501       -0.8059208203      -11.0015390783
 C       -10.3675339773       -0.4249777467      -12.6871457781
 C        -8.1380794370        2.0519628325       -6.9059784860
 C        -6.0283756838        3.4154932480       -7.7892990852
 C        -1.6545377716       -0.7248036314       -3.9587311486
 C        -0.3909686402       -1.0753775961       -6.0339953292
 C        -5.1535550240       -6.5638990613       -8.3198608895
 C        -3.5629928905       -7.1033867365      -10.1357326719
 C        -3.2548449655        0.5641603966      -10.6831740891
 C        -3.8609143321       -0.0890778270      -13.0033340544
 C         3.4822452680       -1.8671695056      -11.3602386487
 C         3.6555685083        0.5120784919      -10.4409451636
 C         6.8463452406        2.2019851066      -15.8734227059
 C         5.7434552482        0.7513425469      -17.5256026238
 C         9.2688419601       -5.1963224436      -16.1356034931
 C         9.1149194827       -4.3183122161      -18.6091968361
 C         1.8078925423       -4.0239659108      -17.2249209270
 C         2.8065256124       -5.0612586779      -19.3300358143
 H         3.5271551064       -1.8199629202      -20.7156048526
 H         4.5657172302       -3.2279169743      -20.2467262471
 H         4.8117110433       -1.4815253659      -19.6186975510
 H         4.9093868637       -6.3736230436      -18.0193241803
 H         4.3064251049       -6.5966938614      -16.3453224678
 H         6.9297882976       -6.7019184238      -16.6897850543
 H         6.5505763869       -5.4038497711      -15.6253062188
 H         9.7931187546       -1.8007201684      -15.6688750059
 H         8.6217003500       -2.5496060147      -14.5147978885
 H         8.5425274740        0.1068318711      -16.1244400255
 H         8.4035279084       -0.1176260285      -14.4047878713
 H         4.4966861279        3.0127548568      -14.1663633356
 H         5.3463345886        1.6394165852      -13.5396159899
 H         2.1684087353        1.6450224184      -13.9745263190
 H         3.0806679292        2.0133539380      -12.4236747629
 H         1.2145030967       -2.6058691472      -10.7644530680
 H         0.6822316414       -2.0344783922      -12.2626436968
 H        -0.8454567203       -0.9250576199       -9.9061498071
 H        -1.2115303445       -2.6374912189      -10.3424235967
 H        -3.7404783504       -2.8701860513      -12.7477509033
 H        -5.3977564333       -3.1043145038      -12.2257875238
 H        -2.9158879742       -4.0562361041      -10.7140214628
 H        -3.7165505825       -4.9910603833      -11.8154673650
 H        -3.2695097139       -5.4274871774       -6.1268685327
 H        -4.0398102858       -4.1858993441       -7.0049413709
 H        -1.3467298373       -3.3642424017       -7.0924581965
 H        -1.4572522454       -4.4310038851       -5.6610985017
 H        -4.1240172888       -0.2563323976       -4.4273211034
 H        -4.7919044895       -0.8859197235       -5.9387239425
 H        -4.2057126376        1.8964468523       -6.3579644365
 H        -5.5004025826        1.5371002971       -5.1427847103
 H        -8.0424824097        3.3390048619      -10.3110420481
 H        -9.1889437306        2.7958616663       -9.1066072820
 H        -8.5690151575        1.0888366260      -11.5370124162
 H        -9.6231925844        2.5164645179      -11.6024060048
 H       -11.2728306611       -1.6966242610       -8.8376419853
 H        -9.6243755001       -1.4558186510       -8.2669332649
 H        -9.2013232983       -3.8338524092       -9.8292565456
 H       -10.7751499124       -3.9734095867       -8.9472181137
 H       -10.4097208320       -3.2123198837       -5.0152302681
 H       -10.6815116137       -4.7760631889       -4.3347588587
 H       -12.6814617770       -3.5741454978       -3.6059637217
 H       -13.3143059873       -4.3893177128       -5.0640421439
 H       -12.7335007844        1.1926462641       -3.3521001470
 H       -11.6841091460       -0.0345610911       -4.1938711696
 H       -11.0894128356       -1.1176977261       -2.1682670327
 H       -12.1327759956       -0.1691057154       -1.2203594311
 H        -8.6035723783        4.4911471332       -1.9247990112
 H        -9.9320052272        4.5790474599       -0.6897402642
 H       -10.2302466596        3.8692748929       -2.2235119082
 H       -11.3194669593        0.5935284354        0.5354539748
 H       -11.7592736092        2.0793252401       -0.4233365882
 H       -10.6985999482        2.3819609442        0.8999911266
 H        -8.1694086078       -0.2407106624       -0.9622552771
 H        -9.5327967615       -0.5343333909        0.3060533893
 H        -8.2325832701        0.6669991027        0.6344408610
 H       -14.8543813035       -0.7961285711       -6.6508416234
 H       -13.8966160507        0.4623424677       -5.8426686267
 H       -15.4595599757        0.0925415116       -5.2769435817
 H       -15.1242483657       -3.0218422060       -3.5662314139
 H       -15.1604322126       -3.1724967731       -5.1397875689
 H       -16.0693270580       -1.8673870810       -4.3717548250
 H        -8.4041966533       -6.4128586414       -8.2122563190
 H       -10.1914931571       -6.3560024003       -8.2114496581
 H        -9.2574202900       -7.1986548140       -7.0382228234
 H        -8.0631600784       -4.1606568398       -5.3589072806
 H        -7.4268776958       -5.4685116993       -6.2957124206
 H        -8.5486420307       -5.8437919081       -5.0389915679
 H       -12.9541373362       -0.1949236844      -11.5593361217
 H       -12.5553943651       -0.7579075049       -9.9258828064
 H       -12.4058430721       -1.8701011955      -11.3351203827
 H        -9.3364614247       -0.2502333586      -12.7593076943
 H       -10.9455906623        0.2559242768      -13.3013279773
 H       -10.5280838534       -1.3913208104      -13.1684622628
 H        -8.6465866370        2.9797524622       -7.1529862483
 H        -7.8987994044        2.0776956340       -5.8229781957
 H        -8.7483979723        1.2336969409       -7.0744474353
 H        -5.0460785555        3.5241976388       -8.0841776945
 H        -6.0678272836        3.7588703514       -6.7675505701
 H        -6.5941735105        4.1180453107       -8.3164383639
 H        -1.1135107300       -1.5445146636       -3.4571717110
 H        -2.5570358717       -0.6979808209       -3.5140996909
 H        -1.2023735469        0.2596405557       -3.9139690677
 H         0.1581267807       -1.7118392334       -5.3845704068
 H        -0.0967929048        0.0083020196       -5.8947305608
 H        -0.3277145257       -1.2660528583       -7.0967124488
 H        -4.8890273924       -7.5115924554       -7.7969897050
 H        -6.0746515227       -6.7495025732       -8.8997772122
 H        -5.2832752552       -5.8638048354       -7.4905776986
 H        -2.5505058623       -6.8615079871      -10.4582798622
 H        -4.1538226293       -7.2782737026      -10.9680169719
 H        -3.5354379975       -7.9996073917       -9.5139605061
 H        -2.5185488967        1.3507077997      -11.0195137207
 H        -2.8754438798        0.3806631770       -9.7071384480
 H        -4.2395083931        0.8786170552      -10.6463827841
 H        -4.4327813216        0.7850583578      -12.8052157991
 H        -4.4396694732       -0.9104435154      -13.5955435333
 H        -3.1545289273        0.3162011204      -13.7572723413
 H         3.1003155081       -2.5751404713      -12.1180057833
 H         3.1654415447       -2.2790350573      -10.3621405117
 H         4.5686249928       -1.7322464144      -11.2757781218
 H         4.4422041324        1.1122803879      -10.8496652251
 H         3.9006436905       -0.0254698681       -9.5365894673
 H         3.0030447806        1.3539828479      -10.1660124566
 H         6.2567021592        3.0993478871      -16.1066406352
 H         7.7378003088        2.2285044937      -16.4894471508
 H         7.2123111650        2.2345280195      -14.8281806066
 H         6.5654748376        0.1709319476      -17.8841896059
 H         5.5690389249        1.7604403556      -18.0259525244
 H         4.8571683228        0.1958015092      -17.9125313063
 H        10.2395236865       -5.5259842070      -16.5641172368
 H         8.6066528601       -5.9025098187      -15.7092028537
 H         9.3541604060       -4.5996483374      -15.2995488543
 H         9.1276943994       -5.3300324740      -18.8250354631
 H        10.1254557924       -3.8831143608      -18.6252540810
 H         8.4959037845       -3.8408985888      -19.4517917014
 H         0.8850101458       -4.0021678660      -17.8835990827
 H         1.7106758545       -3.3274030060      -16.3685343677
 H         1.7872657282       -5.0985297956      -16.7602679555
 H         3.7658015748       -4.9890563345      -19.9286822615
 H         1.9588068419       -4.7442349505      -20.0043924444
 H         2.5625144825       -6.0705533600      -18.9121736940
 Na        3.6292175134       -1.8041709480      -15.6552735929
 Na       -6.7879800145       -1.7931583263       -9.0505541047
