232

 C         3.9666783089       -2.3427358458      -19.8794379907
 C         3.3860882072       -2.6945068628      -18.4730109153
 O         3.1282439493       -1.6850467473      -17.7644797296
 C         3.0080367443       -4.1100214893      -18.0869055605
 C         4.2988202356       -4.4814310193      -17.1894301040
 O         4.6874315871       -3.7376061485      -16.3171300555
 C         4.8025152406       -5.9209281983      -17.0049788040
 C         6.3145543740       -5.8081624208      -16.7275221596
 C         7.0472431157       -4.6954120100      -17.4975329968
 O         6.3744240613       -4.1300569320      -18.3885950383
 C         8.4699910069       -4.1757488495      -17.2469576722
 C         8.3357676236       -2.6590718346      -16.8146025307
 O         7.6612788948       -2.0053844685      -17.5603088905
 C         8.5548326099       -2.0887825317      -15.3956004554
 C         8.0787305867       -0.5522701998      -15.3552184001
 C         6.5173799997       -0.4149269973      -15.5620297955
 O         5.7634652210       -1.3726216925      -15.3251627274
 C         5.8659202073        0.9278540282      -16.1871214695
 C         4.4355773950        1.1432388512      -15.5820889167
 O         3.3864441447        1.0095668516      -16.1712148911
 C         4.3975888318        1.5637425483      -13.9620971722
 C         3.0029974384        1.5042857976      -13.4144351890
 C         2.8903037249        0.0110998449      -13.0030039607
 O         2.8330924564       -0.9086621926      -13.7887444005
 C         2.8485014556       -0.4621746108      -11.4346705552
 C         1.3754456219       -0.5147386392      -11.0849171049
 O         0.8123843230        0.4532727978      -10.5723041848
 C         0.5246748400       -1.8504905510      -11.2414668568
 C        -0.8817140829       -1.5747289103      -10.7823784470
 C        -1.7895336920       -1.0508579619      -11.9226456421
 O        -1.4010045947       -1.0912974334      -13.0596724681
 C        -3.3195920481       -0.5581441146      -11.5905886088
 C        -4.2075886994       -1.7297747256      -11.0787030150
 O        -4.6246598180       -1.7074004706       -9.9219188178
 C        -4.4970450397       -3.0323000109      -11.9389253943
 C        -3.8018946179       -4.1560573606      -11.1751888734
 C        -4.5459174581       -4.6397620098       -9.9090858294
 O        -5.5382829840       -4.0948383111       -9.4147120750
 C        -3.9296191790       -5.8964170059       -9.1262931843
 C        -2.7628249118       -5.3129907205       -8.3021623576
 O        -1.5712078469       -5.3649876524       -8.6460300575
 C        -3.1114738339       -4.5757795691       -7.0263201298
 C        -1.8938863989       -3.7188696494       -6.4794915424
 C        -2.4178045772       -2.7020112747       -5.3891134830
 O        -3.3675571285       -2.8996171766       -4.6998374869
 C        -1.7906023540       -1.1633819486       -5.3155491888
 C        -2.7660620551       -0.1474750380       -6.0475087204
 O        -2.4628536559        0.5642235805       -7.0246948949
 C        -4.2623837813       -0.1258730316       -5.5265801619
 C        -5.1413346962        1.1549910636       -6.0001948170
 C        -6.0025789503        0.8412851838       -7.2047601999
 O        -5.9963671033       -0.3006045150       -7.5797265160
 C        -6.8747705267        1.9720442552       -7.7420496955
 C        -7.3030215492        1.6207573817       -9.2274292985
 O        -6.7883290304        0.6563713674       -9.8118369788
 C        -8.4114741527        2.5063102294       -9.7290878196
 C        -9.1611941223        1.7870411149      -10.8846312221
 C       -10.4270501437        1.0214169079      -10.3938203535
 O       -11.2316009048        1.4262881626       -9.5840701996
 C       -10.7898774385       -0.3770930463      -11.0183095709
 C        -9.8819955591       -1.3012837577      -10.2242160038
 O        -8.6912377484       -1.3090031690      -10.6120035571
 C       -10.3446866076       -2.0241705590       -8.8896565007
 C        -9.9413431015       -3.4608196544       -8.9789917599
 C        -8.9252614798       -3.7736295235       -7.8720817199
 O        -8.0638800561       -3.0000904501       -7.4281445432
 C        -9.2841313027       -4.9733747665       -6.9741091470
 C       -10.8156792950       -4.6820823081       -6.4949618549
 O       -11.7963722458       -4.9017587392       -7.2366707890
 C       -11.0656413873       -4.2174099753       -5.0597425143
 C       -12.4639355696       -3.6533269198       -4.8656616562
 C       -12.7737624121       -2.2811310737       -5.3986411242
 O       -12.1805638013       -1.8769993460       -6.4025643616
 C       -13.9964343593       -1.4945314337       -4.8336565942
 C       -13.5706953736       -0.7000498637       -3.4337378187
 O       -14.2183208892       -0.9263922635       -2.4594037449
 C       -12.3428894182        0.2373419588       -3.4420371552
 C       -11.5254168089        0.0296552129       -2.0650616015
 C       -10.3262770047        0.8709805075       -2.0401280070
 O        -9.7607636049        1.2900251431       -3.0561227652
 C        -9.8387583429        1.4382783820       -0.6415561290
 C        -8.8185353079        2.6953067280       -0.8619598580
 O        -7.6269278557        2.5086658662       -0.6379564531
 C        -9.4033194983        3.9580012954       -1.4196478946
 C       -11.0360525475        1.6750493095        0.3184667016
 C        -8.8463722865        0.1879752967       -0.2366722060
 C       -14.5536257889       -0.4107044393       -5.7881596134
 C       -15.2250432427       -2.4190160560       -4.4111877883
 C        -9.3669480818       -6.4507682958       -7.6949991009
 C        -8.2268810352       -4.9368254593       -5.6768266560
 C       -12.2541081282       -0.7059212775      -10.9471299090
 C       -10.3853429666       -0.4052680226      -12.5478738421
 C        -8.1614995929        2.0300880349       -6.8508879226
 C        -6.2110935236        3.3198645278       -7.8162046877
 C        -1.6930660708       -0.7034437341       -3.8437530842
 C        -0.4558813615       -1.0580151674       -6.0852250158
 C        -5.1237154443       -6.5603445177       -8.2290568876
 C        -3.4079786213       -6.9604968050      -10.1075227337
 C        -3.3165775265        0.7407962070      -10.6086166405
 C        -3.8594638080       -0.1373743544      -12.9443658104
 C         3.5560989785       -1.8328784223      -11.3609392679
 C         3.4565895011        0.5304770480      -10.4571135792
 C         6.8360380847        2.1382883935      -15.7858919012
 C         5.7011426884        0.7166958423      -17.7013818153
 C         9.1869495206       -5.0413128734      -16.1888992102
 C         9.2165122681       -4.1550721225      -18.6344404597
 C         1.7242714924       -3.9932431166      -17.1657322199
 C         2.7623002036       -4.9460167214      -19.3663739991
 H         3.0881215117       -2.0805087023      -20.4854438913
 H         4.5541137339       -3.1806040946      -20.3026687060
 H         4.4347619622       -1.4353833193      -19.8301683631
 H         4.7046590164       -6.6553958247      -17.8131731338
 H         4.3482684782       -6.2824396710      -16.0546087457
 H         6.7306054267       -6.7703901312      -16.9535882774
 H         6.6274925485       -5.6188693075      -15.7114487863
 H         9.6021255088       -2.2146558899      -15.0597978351
 H         7.9225135546       -2.5846287917      -14.6847186391
 H         8.3809480938        0.0775827601      -16.1966580128
 H         8.3964487924       -0.0144692622      -14.4315866293
 H         4.8784690478        2.5764373480      -13.8909251721
 H         5.1632613818        0.8932019157      -13.4371528512
 H         2.2891712422        1.8317440492      -14.1742412296
 H         2.9546062193        2.1712156284      -12.4905692881
 H         1.1261337999       -2.6147045196      -10.7294350087
 H         0.5944615616       -2.1246856230      -12.3179605782
 H        -0.9383649991       -0.9272756773       -9.9325660285
 H        -1.2561000222       -2.5766780273      -10.4778107139
 H        -4.0917806766       -2.9615176250      -12.9173325921
 H        -5.5829763750       -3.1427445082      -11.9218003709
 H        -2.8026436943       -3.9149208880      -10.9640585381
 H        -3.7053015340       -5.0166347565      -11.8202004928
 H        -3.5971363048       -5.2112876626       -6.2818006479
 H        -3.9006531206       -3.9063088478       -7.3768053081
 H        -1.4593252998       -3.2192119810       -7.3376075910
 H        -1.1734242534       -4.4220168186       -6.0041620543
 H        -4.2043495372       -0.1624901317       -4.4932382484
 H        -4.8361477131       -0.9922808991       -5.8876472818
 H        -4.3479533673        1.8984878563       -6.3144315787
 H        -5.6193983265        1.4979707513       -5.1414657529
 H        -8.0168940556        3.4206893201      -10.0541822251
 H        -9.0835272491        2.6859925556       -8.8130404819
 H        -8.3972751980        1.0449040177      -11.1647791667
 H        -9.4249349162        2.4529902782      -11.7088030898
 H       -11.4301113011       -1.7813339691       -8.7877068059
 H        -9.8258237374       -1.6396245301       -8.0349658140
 H        -9.4862527402       -3.7012515916       -9.9099748167
 H       -10.7748304803       -4.1281696340       -8.8663892822
 H       -10.2745983212       -3.4407679223       -4.8678129236
 H       -10.7386374590       -5.0431879735       -4.3963711247
 H       -12.6468974964       -3.6414403028       -3.7986189987
 H       -13.2194775725       -4.4041280093       -5.2924579569
 H       -12.9234958273        1.1540376054       -3.3653539320
 H       -11.5762743177        0.2358485477       -4.2603590009
 H       -11.2605226521       -1.0009115861       -1.9297983199
 H       -12.1870223076        0.1363502511       -1.2206598204
 H        -8.7931123760        4.6016951743       -2.0122064794
 H        -9.8755364129        4.4310948950       -0.6053743084
 H       -10.2727171065        3.6798238446       -2.0005255366
 H       -11.3368373103        0.5991409328        0.6016467991
 H       -11.9593287778        2.1341376283       -0.1563590675
 H       -10.8391423699        2.4161400815        1.1301751328
 H        -7.9448659337        0.2376893820       -0.8659525780
 H        -9.4296285901       -0.7454685026       -0.2837089492
 H        -8.5346093469        0.4466922081        0.7646722638
 H       -14.9772972566       -0.9001319356       -6.6431148711
 H       -13.9603400498        0.3964110324       -6.1382790153
 H       -15.4750577869        0.0539073221       -5.2681440138
 H       -15.4421279814       -2.6867483026       -3.3522879340
 H       -15.0738718486       -3.4406772463       -4.8052887266
 H       -16.1330104648       -1.9049273694       -4.8301042037
 H        -8.8478162177       -6.5238279782       -8.6119282794
 H       -10.3555035145       -6.7954522805       -7.7985438387
 H        -8.8002853312       -7.2577107647       -7.1433521329
 H        -8.0898365111       -3.8783992240       -5.3992157740
 H        -7.1873760925       -5.2773023496       -5.9659003700
 H        -8.5399911903       -5.4865519089       -4.8222175209
 H       -12.8806132349       -0.0898667602      -11.5862784015
 H       -12.6354884492       -0.6396812368       -9.9257364194
 H       -12.3809992765       -1.8002181737      -11.2923800155
 H        -9.2938251496       -0.0767976536      -12.6788682514
 H       -11.0408330161        0.0834082704      -13.1620227390
 H       -10.3543754335       -1.4360982218      -12.8691126719
 H        -8.6939354650        2.9809700549       -7.1022590762
 H        -7.7631463049        2.2166733523       -5.8292240746
 H        -8.8604496573        1.1694948876       -6.9358484972
 H        -5.1663947952        3.3494776784       -8.1611084728
 H        -6.2259859145        3.8154620560       -6.8130676153
 H        -6.7552540896        4.0394549410       -8.4594635391
 H        -1.2737124996       -1.3750010289       -3.0506422851
 H        -2.6833398122       -0.3938529215       -3.6008984923
 H        -1.1931943560        0.1901747672       -4.0050884640
 H         0.2742130239       -1.6424110988       -5.5920857781
 H        -0.2502030229        0.0057841821       -6.1467598684
 H        -0.6482348163       -1.3431313599       -7.0998015915
 H        -4.9500065996       -7.5537110274       -7.8565461152
 H        -6.0579935128       -6.5927307533       -8.7694363236
 H        -5.1324877005       -5.9362757504       -7.2593899852
 H        -2.3615300569       -6.7187320266      -10.3591699516
 H        -4.0027193340       -7.0755185178      -11.0047392124
 H        -3.4017890923       -7.8588002908       -9.6275178954
 H        -2.6978972609        1.5587619296      -10.9833571856
 H        -2.8739321928        0.6008070212       -9.6418805940
 H        -4.3423726246        0.9735326452      -10.4994789267
 H        -4.6122604722        0.6361925343      -12.7973087066
 H        -4.0211727963       -0.8464651047      -13.7442800241
 H        -3.0820461140        0.5875851693      -13.3450984411
 H         2.9438340266       -2.3976296065      -12.0213884213
 H         3.5406869240       -2.2977536747      -10.4164418399
 H         4.5961102476       -1.7872557218      -11.6950454862
 H         4.1346315905        1.2541922163      -10.8195568050
 H         3.8487007273       -0.0098285471       -9.6279498558
 H         2.6998886868        1.1704315909      -10.0778852702
 H         6.4655240676        3.1135343767      -16.1194486619
 H         7.7167525683        1.9224999277      -16.2934557388
 H         7.1759932539        2.1859686644      -14.7077756548
 H         6.5393627008        0.1335022346      -18.1714088008
 H         5.3282052257        1.5555202892      -18.2334203178
 H         4.8184139538        0.0282042131      -17.8791331170
 H         9.7001011840       -5.8477750744      -16.6255150521
 H         8.6001964196       -5.1665914875      -15.3138234143
 H         9.9022515796       -4.2338721381      -15.7999780636
 H         9.0490507637       -5.0395237382      -19.1969766691
 H        10.3194909739       -3.9868914554      -18.4932385105
 H         8.7942926603       -3.3327131749      -19.2570842235
 H         0.7667062766       -3.8469117787      -17.8003988757
 H         1.7870370533       -3.2450984944      -16.3705668222
 H         1.6147069565       -4.9206596335      -16.6188894352
 H         3.6497979833       -4.7672487389      -19.9493792173
 H         1.9335017175       -4.4792346716      -19.9224748674
 H         2.4809368968       -6.0073638252      -19.1927265414
 Na        3.5302554916       -1.6871242092      -15.6814596197
 Na       -6.9854846175       -1.8558107194       -9.2591547884
