232

 C         3.4823983622       -2.9904988200      -20.3102993455
 C         2.9744892793       -3.0239506687      -18.8030984726
 O         2.8655073494       -1.9238523328      -18.2351040501
 C         2.5704698882       -4.3537403231      -18.1641965712
 C         3.8392944788       -4.3918757822      -17.2983484025
 O         3.8846663297       -3.6536305233      -16.3364637359
 C         4.9606600533       -5.2970207147      -17.7767479103
 C         6.3674421608       -5.0241083811      -17.0936477371
 C         7.5582529497       -4.8162415078      -18.0974618051
 O         7.3467423757       -4.9196097646      -19.3013868859
 C         8.8374762925       -3.9391168783      -17.5689667869
 C         8.2034695311       -2.6357774499      -17.1177333969
 O         7.6401231313       -1.9289262860      -17.9343615104
 C         8.3351970757       -2.2268344209      -15.6346859319
 C         7.8777957395       -0.7195864321      -15.5119698592
 C         6.2795793392       -0.5423457813      -15.4840376347
 O         5.5191799796       -1.4037165019      -15.0217711954
 C         5.7046704940        0.7740766260      -16.0748885093
 C         4.2774054963        1.0170430633      -15.6483007989
 O         3.2758319890        0.9148908229      -16.3192058954
 C         4.0439529087        1.3951444412      -14.1809418203
 C         2.5840112340        0.9787507308      -13.6909630528
 C         2.7333305967       -0.2952496197      -12.9450608479
 O         2.9003007734       -1.4296885343      -13.4450022051
 C         2.5855871118       -0.2695539201      -11.2610112256
 C         1.0756781500       -0.2061205426      -10.9595772484
 O         0.4848524452        0.7585341512      -10.6846656784
 C         0.3890634284       -1.6842554459      -11.1781791032
 C        -1.0962792105       -1.4780450884      -10.8473212849
 C        -1.8647299297       -0.7729145855      -12.0017874923
 O        -1.4684288999       -0.8115253508      -13.1504067935
 C        -3.3855605935       -0.2077561293      -11.6225741799
 C        -4.0509069680       -1.4077721919      -10.9616943261
 O        -3.9930175765       -1.4767208779       -9.7398974057
 C        -4.6944095991       -2.5972921926      -11.7324557033
 C        -3.9444968769       -3.8573938616      -11.1643576978
 C        -4.4549332635       -4.4568661900       -9.8778984800
 O        -5.5317307331       -4.1317710400       -9.3976934441
 C        -3.5882524168       -5.6238047163       -9.2100567035
 C        -2.5162879453       -4.8649032036       -8.3873217406
 O        -1.3763083222       -4.9367737460       -8.8214905721
 C        -2.9350670043       -4.0757882600       -7.1158323681
 C        -1.9251790866       -3.0118652745       -6.8304931698
 C        -1.9492274018       -2.5628221972       -5.3646177461
 O        -2.1747052091       -3.3110152374       -4.4376775915
 C        -1.9313232444       -1.0508135289       -4.9684949947
 C        -2.9697394271       -0.1831715689       -5.7999553307
 O        -2.7004334254        0.0684873015       -6.9961246364
 C        -4.3208349587       -0.0937935543       -5.1638669074
 C        -5.1089747269        1.0192349352       -5.8219228957
 C        -6.1649897574        0.4620890602       -6.8533656746
 O        -6.2461969151       -0.7176958865       -7.1074185651
 C        -7.0872531002        1.6005662813       -7.4735339783
 C        -7.3097497486        1.3308893632       -9.0507592643
 O        -6.9822970112        0.2885115824       -9.6174665038
 C        -7.9843391389        2.4242378497       -9.8671596500
 C        -9.1147476601        1.8033126743      -10.7074852568
 C       -10.0782217353        1.0214113408       -9.8018941881
 O       -10.2894443246        1.2642562300       -8.6751353424
 C       -10.9237752853       -0.1580383933      -10.5739301048
 C        -9.9442210351       -1.4119583794      -10.3939916692
 O        -8.7820982871       -1.3303065461      -10.8681136838
 C       -10.5489634851       -2.6321883773       -9.6064817605
 C        -9.7285764612       -3.9241799482       -9.4345356215
 C        -8.8441148017       -4.0012736892       -8.0878311512
 O        -8.0020816111       -3.1945305468       -7.8345747223
 C        -9.2006926945       -5.0376174403       -6.9147092991
 C       -10.7549641633       -4.7890168768       -6.4482419988
 O       -11.7371155786       -5.0732798357       -7.1371676761
 C       -10.8969870587       -4.3505538357       -4.9333002244
 C       -12.3444797252       -3.7990947442       -4.8206986927
 C       -12.4657668743       -2.4528193228       -5.4695484423
 O       -11.6230016623       -2.0315134474       -6.2707843202
 C       -13.6383182665       -1.5449382088       -5.0145815056
 C       -13.1998292253       -1.0876196285       -3.5089415771
 O       -13.4900484438       -1.7779447751       -2.5615308479
 C       -12.1309977416        0.0725195552       -3.3795072881
 C       -12.1354684336        0.8403315427       -2.1002214747
 C       -10.7749397897        1.5327706447       -2.0097683452
 O       -10.2235483886        1.8459800904       -3.0654668210
 C       -10.0830216675        1.5897060479       -0.5959448040
 C        -8.7225993499        2.4773830356       -0.7368997838
 O        -7.6072202395        1.9704702143       -0.8383409072
 C        -8.9833961870        3.9883666272       -0.7282853556
 C       -10.9789788987        2.0801194677        0.4886766494
 C        -9.6868288473        0.1223357842       -0.4071401030
 C       -13.8183988677       -0.3045430077       -5.8364268743
 C       -14.9357172298       -2.3105921526       -4.9617344987
 C        -9.1026860225       -6.4415613911       -7.3878351624
 C        -8.1982193184       -4.7616248906       -5.8415009693
 C       -12.3255383289       -0.3753249626      -10.1455638249
 C       -10.9325170115        0.0601117403      -12.1263427999
 C        -8.3843282755        1.4706147892       -6.7089781498
 C        -6.5059844131        2.9486859519       -7.3390002581
 C        -2.1193904488       -0.9260324202       -3.4343025473
 C        -0.4054714405       -0.6299762016       -5.3111626383
 C        -4.5065676874       -6.5423912619       -8.3937291202
 C        -2.7972262077       -6.4213740028      -10.2646112433
 C        -3.2877962014        1.0085576337      -10.7496723721
 C        -4.0706719941        0.0720031664      -12.9830025265
 C         3.2763994697       -1.6078544193      -10.8151999172
 C         3.3182276129        0.9836828962      -10.6952978395
 C         6.5786395877        2.0380962176      -15.6668258543
 C         5.7560988307        0.5182156201      -17.6206087084
 C         9.6930371670       -4.7713860372      -16.4754983950
 C         9.6700648880       -3.5950511552      -18.6979597409
 C         1.2104684082       -4.0492336046      -17.3584480345
 C         2.3002127948       -5.4113427538      -19.2191416941
 H         2.7366933047       -3.5970607479      -20.8823997790
 H         4.5509395322       -3.3216040510      -20.2906133722
 H         3.4871058800       -2.0111556285      -20.6601938983
 H         5.1818067004       -5.2502235031      -18.8100901729
 H         4.6441657853       -6.3467156356      -17.5418937794
 H         6.6361069669       -6.0152899879      -16.6222480150
 H         6.4171029296       -4.2626540962      -16.3106974737
 H         9.3338354312       -2.2660541454      -15.1547881389
 H         7.5323127866       -2.6549562649      -15.0606968504
 H         8.1971531978       -0.0692692989      -16.2763262541
 H         8.3937297598       -0.3683686941      -14.6023485176
 H         4.1565135960        2.4556355097      -14.0516403665
 H         4.6925108838        0.8383639031      -13.5873722401
 H         1.8490310361        0.9769656185      -14.4577944415
 H         2.3465099001        1.7897382151      -12.9813292733
 H         0.9223751152       -2.3396703266      -10.5237721475
 H         0.5057271010       -1.9066565290      -12.2192854578
 H        -1.2319585274       -0.9202317344       -9.9360432430
 H        -1.6275959899       -2.4387049724      -10.8246810006
 H        -4.6218741944       -2.4633840994      -12.8228012043
 H        -5.7989177000       -2.5930805990      -11.4331676555
 H        -2.8308876598       -3.7429722335      -11.0484762798
 H        -4.0636176356       -4.6576750313      -11.9981183423
 H        -2.8325535979       -4.7755281993       -6.2145373114
 H        -3.9068852597       -3.6222319494       -7.2096621938
 H        -2.0427127473       -2.1759262647       -7.4929188867
 H        -0.9322650626       -3.4856831488       -7.0352195038
 H        -4.1980570812       -0.0379250801       -4.0903767602
 H        -4.8282510356       -1.1060854285       -5.2941733358
 H        -4.4504454290        1.7113256476       -6.4351799967
 H        -5.6122497007        1.7120281036       -5.1419742895
 H        -7.2395406429        2.9019656860      -10.5078296095
 H        -8.3909962624        3.1237954723       -9.0808598288
 H        -8.5774078508        1.0349496668      -11.2472846520
 H        -9.6171352025        2.5653819264      -11.3226034479
 H       -11.5528034731       -2.7977633058      -10.1192789299
 H       -10.7389042022       -2.2280983327       -8.6340485212
 H        -9.0970729420       -4.2429242767      -10.2878657964
 H       -10.5115412302       -4.6945741565       -9.3597105968
 H       -10.1281265498       -3.6121925108       -4.6982068189
 H       -10.7515173098       -5.2043525566       -4.3204558512
 H       -12.6349674244       -3.8267081247       -3.7990427094
 H       -13.0875416880       -4.4310739694       -5.2970940474
 H       -12.1639836564        0.8162113618       -4.1577132726
 H       -11.1289147867       -0.3561109432       -3.4826366263
 H       -12.2611341824        0.0924288717       -1.2895928130
 H       -12.9548974278        1.5757815411       -1.9928700803
 H        -8.1343897214        4.5153459768       -1.1647258084
 H        -9.3000759303        4.4626843946        0.2030079993
 H        -9.7459247045        4.0918672675       -1.5420704138
 H       -11.6415340739        1.3735521714        0.9080088662
 H       -11.5576210418        2.8352066043        0.1567341472
 H       -10.4026641059        2.3357073239        1.2961007342
 H        -9.2539813102       -0.1887056038       -1.3622900138
 H       -10.6546055943       -0.3424658054       -0.3260825445
 H        -9.1097188087       -0.1056566890        0.4581841515
 H       -14.4402889968       -0.5210312837       -6.6992023637
 H       -12.8711852460       -0.0185352553       -6.1824330370
 H       -14.3047319536        0.5943643574       -5.3380539436
 H       -15.8585959904       -1.7847791105       -5.3062791952
 H       -15.1557943993       -2.7030420699       -3.9403955902
 H       -14.8573217817       -3.3154784971       -5.4116078192
 H        -8.8457528008       -7.0379396450       -6.5347521555
 H        -8.4137233138       -6.6528734781       -8.1909987085
 H       -10.0349782955       -6.9186510327       -7.8673832851
 H        -8.1201481740       -3.6642242857       -5.7633234627
 H        -7.1631827819       -5.1731175056       -6.1040062108
 H        -8.4178923603       -5.0885812626       -4.8461304860
 H       -12.9181704252        0.4864032561      -10.2229300778
 H       -12.4151920566       -0.7524264217       -9.1565902006
 H       -12.7403185128       -1.1553686386      -10.8429442841
 H        -9.8500912319        0.1489202318      -12.5242208949
 H       -11.3900876952        0.9644072808      -12.3547040277
 H       -11.4778522725       -0.7885007375      -12.5857973845
 H        -9.0085544497        2.3476841420       -6.8609483245
 H        -8.0479715084        1.4979780357       -5.6627446145
 H        -8.9638017912        0.5287562819       -6.9665730383
 H        -5.3887605880        2.8118963265       -7.5124404708
 H        -6.5774206418        3.2316815337       -6.2561597971
 H        -6.9063057650        3.7641516766       -8.0021619811
 H        -1.2713485582       -1.4062504958       -2.9550823087
 H        -3.1129595719       -1.4570137968       -3.2160790975
 H        -2.0851721291        0.0632308571       -3.2168302629
 H         0.3862920935       -1.3241300093       -5.1237217651
 H        -0.3666603595        0.1855362689       -4.5956279911
 H        -0.5097562432       -0.2378560869       -6.3149262792
 H        -3.8714264115       -7.1773586499       -7.8487568933
 H        -5.2017915182       -7.0665868554       -8.9904639156
 H        -5.1462977221       -5.8904391027       -7.7330250665
 H        -1.7618313479       -6.0008979833      -10.5465311907
 H        -3.3122463804       -6.6712350217      -11.2465651997
 H        -2.5650658826       -7.3834408199       -9.8392565682
 H        -2.6345483652        1.7850505411      -11.1916860650
 H        -3.0802784011        0.6450754094       -9.7146810038
 H        -4.2346018384        1.5268577735      -10.7278415221
 H        -5.1263038945       -0.0779941930      -12.8449007121
 H        -3.7773439350       -0.5486893606      -13.7962086132
 H        -3.8149079492        1.1153265000      -13.2211886382
 H         2.8259077391       -2.4416298446      -11.2798503707
 H         3.1540753631       -1.7516792127       -9.7842157517
 H         4.3162122898       -1.6554251425      -11.1307732906
 H         4.3220302552        1.0208830951      -11.0820019480
 H         3.4284432183        0.9606987440       -9.6195736153
 H         2.6976843517        1.8718849495      -10.7014069535
 H         6.1501966469        2.8442593109      -16.2581596362
 H         7.4703342985        1.8429778247      -16.1403512094
 H         6.6240936224        2.3331604746      -14.5601265633
 H         6.7404533322        0.3089556827      -18.0549065623
 H         5.5512676585        1.3648181973      -18.1892212603
 H         5.0105389129       -0.2515152458      -17.7841635581
 H        10.1710877566       -5.5543775073      -16.9749225927
 H         9.0750380500       -5.2440178715      -15.6568165010
 H        10.3442891051       -4.0925149317      -15.8128907675
 H        10.3689394725       -2.7482543748      -18.4142899531
 H         9.0570081582       -3.1409549110      -19.4505843946
 H        10.1484291818       -4.3840598743      -19.2117774881
 H         0.4705165054       -3.9065815005      -18.1263698948
 H         1.1606197132       -3.1568479379      -16.7723892364
 H         0.8802802542       -4.8424564015      -16.8089516876
 H         3.1865387507       -5.5563956537      -19.7362925451
 H         1.5469699730       -5.1935770397      -19.9265411943
 H         2.0854703681       -6.3129838174      -18.7106620262
 Na        3.1968771677       -1.5308396930      -15.7500521302
 Na       -6.8208308825       -1.9718175680       -9.2129256700
