232

 C         3.3477281386       -2.9879197990      -20.4187736995
 C         2.8263743056       -2.9573635041      -18.9628365746
 O         2.8800914494       -1.9707228890      -18.2596907781
 C         2.5620895905       -4.3562215595      -18.3325332340
 C         3.7744889624       -4.4588564598      -17.2335562115
 O         3.8783638021       -3.7804576832      -16.2511291343
 C         5.0091012652       -5.1435313174      -17.9350501667
 C         6.2979188769       -4.8664354608      -17.1024101053
 C         7.5282845041       -4.7503104794      -18.1346044572
 O         7.4854682952       -5.0591713022      -19.2503800077
 C         8.7374723077       -3.9455622246      -17.6084077833
 C         8.1188365711       -2.6109556210      -17.0660200995
 O         7.6354129838       -1.9170565509      -17.9237328307
 C         8.2731494838       -2.1568213138      -15.5988330910
 C         7.7751858757       -0.6722712936      -15.4993695635
 C         6.3077089395       -0.5463509641      -15.4880948218
 O         5.6038740315       -1.4703889003      -15.1146395101
 C         5.6693594645        0.7491452366      -16.1094018389
 C         4.2018659507        0.9420190482      -15.6257178754
 O         3.2753472485        0.7447986108      -16.3698023300
 C         3.9960445910        1.4265773142      -14.1286507436
 C         2.5854878050        1.0349836221      -13.6679013938
 C         2.7800222216       -0.2899782884      -12.9080692759
 O         3.0339173345       -1.3011251002      -13.5003119402
 C         2.6883823959       -0.2703834804      -11.4397622740
 C         1.1584095101       -0.3381338961      -11.0396733812
 O         0.6298818878        0.7053659984      -10.7626905641
 C         0.3519068402       -1.5819147240      -11.1085237699
 C        -1.1203380594       -1.4940687697      -10.8210399753
 C        -1.9352497834       -0.7832977556      -11.9142893230
 O        -1.4846731046       -0.7930451311      -13.0569500521
 C        -3.3518919902       -0.1266242250      -11.6652916612
 C        -4.1638122194       -1.3464888216      -10.8886534232
 O        -4.2205406102       -1.5010365559       -9.7175026064
 C        -4.7155982565       -2.5168653326      -11.7718859112
 C        -4.0069502279       -3.8059804063      -11.2853526610
 C        -4.5540717504       -4.4230439925       -9.9198863632
 O        -5.4890582476       -4.0642809221       -9.2617633160
 C        -3.6086226538       -5.5173225819       -9.3078372506
 C        -2.4866754914       -4.7367905037       -8.4530435550
 O        -1.3475123797       -4.6502063188       -8.7905007769
 C        -2.8344831053       -4.1366008041       -7.1661807016
 C        -1.8410763434       -2.9840495087       -6.7681496561
 C        -2.0143386841       -2.5407182503       -5.3801123484
 O        -2.0215226811       -3.4272501064       -4.5164483850
 C        -1.9411361489       -1.0179521292       -4.9556874324
 C        -2.9813514722       -0.3104897437       -5.7797410515
 O        -2.7195186307        0.1984977791       -6.8214440599
 C        -4.3395348461       -0.0456054652       -5.1311817015
 C        -5.1663963184        0.9819041486       -5.8947798252
 C        -6.1308646294        0.4214082775       -6.8596374096
 O        -6.2254608919       -0.7404614246       -7.2082118575
 C        -7.0761471893        1.5328075119       -7.3998308454
 C        -7.2576655670        1.2661295579       -8.9774786828
 O        -6.8850697021        0.2718243328       -9.5629522204
 C        -7.9196747095        2.3671346154       -9.8114977633
 C        -9.0110947342        1.6695276731      -10.6447299904
 C       -10.0670898350        0.9788237085       -9.7604542410
 O       -10.2877467669        1.2607560911       -8.6225381416
 C       -10.8283129048       -0.2418754529      -10.5409618389
 C        -9.8736366715       -1.4872907350      -10.3390562814
 O        -8.7647583668       -1.5987678767      -10.8135300534
 C       -10.5357514050       -2.6646578671       -9.5366001229
 C        -9.7353264296       -3.9353696146       -9.3655777392
 C        -9.0183384689       -3.9677128533       -8.0662074946
 O        -8.1812426473       -3.1075662987       -7.9003027175
 C        -9.2098275704       -5.0389029569       -6.9572966875
 C       -10.6817521811       -4.8622214149       -6.5408158810
 O       -11.5575539827       -5.0642672178       -7.2739546697
 C       -10.9069559727       -4.4026505377       -5.0625908602
 C       -12.3279235539       -3.9013082101       -4.8460503751
 C       -12.3827185245       -2.4959956660       -5.5000025585
 O       -11.5309181685       -2.2218400366       -6.3246850393
 C       -13.5340003328       -1.5163101744       -5.0323352465
 C       -13.1584825298       -1.1017505407       -3.6350753793
 O       -13.5165137334       -1.6657293800       -2.6078776288
 C       -12.1443681257        0.0920411647       -3.4112426856
 C       -12.1751309000        0.9113384225       -2.1244825777
 C       -10.8056066487        1.6253910643       -1.9479105655
 O       -10.2618499904        2.1089275097       -2.9109083675
 C       -10.0489844817        1.5477632461       -0.5284077519
 C        -8.7116024038        2.4004957952       -0.7463790827
 O        -7.6023149056        1.9345965773       -0.9090087560
 C        -8.9967669650        3.9396270740       -0.7061411739
 C       -10.9125259160        2.2357414322        0.5372661020
 C        -9.7566314377        0.0602246575       -0.3761471197
 C       -13.8144694217       -0.2368748478       -5.8781874764
 C       -14.8916614886       -2.3641655238       -4.9299423366
 C        -9.0817062670       -6.5865720585       -7.4819000476
 C        -8.2325804140       -4.7458360179       -5.7960120212
 C       -12.1821204872       -0.4175429492       -9.9606649977
 C       -11.0278640771       -0.0349047947      -12.0682638175
 C        -8.4499637706        1.4181785519       -6.5522320289
 C        -6.5376241768        2.9871769200       -7.1592996057
 C        -2.1581575759       -1.1000222417       -3.3493266238
 C        -0.4985280199       -0.5068554121       -5.3205805025
 C        -4.4565082821       -6.3563490933       -8.3221801832
 C        -2.9336216349       -6.3906194919      -10.3969032943
 C        -3.3318054155        1.1106122091      -10.7507216165
 C        -4.1292019076        0.0533879427      -13.0565637069
 C         3.4058613478       -1.5034702757      -10.7466319387
 C         3.2266537108        1.0538670545      -10.7985803234
 C         6.3721335644        1.9325009817      -15.4658624774
 C         5.6959849609        0.5332339176      -17.6831590031
 C         9.6783231566       -4.7115809202      -16.5629869093
 C         9.6443708522       -3.6318041111      -18.8214263668
 C         1.2008600328       -4.1426230325      -17.4199480985
 C         2.2920418959       -5.5405065918      -19.1857097978
 H         2.4800420892       -3.2213235515      -21.0470770618
 H         4.0911429384       -3.8015312060      -20.3094127989
 H         3.9584075113       -2.0889513926      -20.6953443327
 H         5.2759679590       -4.5802222114      -18.8569539406
 H         4.8187343065       -6.1663075329      -18.2390459583
 H         6.4114339869       -5.5584127227      -16.2694890798
 H         6.2109616916       -3.8313368319      -16.6661302399
 H         9.3310525493       -1.9940428646      -15.3497263900
 H         7.6792975620       -2.6868699579      -14.8419550082
 H         8.1508061673        0.0361743610      -16.2646438366
 H         8.1796507049       -0.2906187242      -14.5734771146
 H         4.0063504851        2.4731020453      -14.2113702068
 H         4.7475789564        1.0094562176      -13.4495765856
 H         2.0949508350        0.7402986660      -14.6058134321
 H         2.0680166652        1.9969717674      -13.3466318731
 H         0.8313940293       -2.1639028786      -10.3352174627
 H         0.4977815884       -1.9358620764      -12.1317785766
 H        -1.3118636982       -0.9340594229       -9.9000717482
 H        -1.4934200934       -2.5738556967      -10.7650958326
 H        -4.4676035611       -2.3655526436      -12.8055935011
 H        -5.8196172612       -2.4193637632      -11.6901596294
 H        -2.9193567853       -3.6276278491      -11.1941154470
 H        -4.0946737969       -4.5083495391      -12.1592838458
 H        -2.8581111839       -4.9191773247       -6.4113593893
 H        -3.7876495724       -3.5687761068       -7.3135111237
 H        -1.9070529924       -2.1954497839       -7.5294139747
 H        -0.8130264232       -3.3304888828       -6.7320782074
 H        -4.0577865875        0.3492368019       -4.1775833678
 H        -4.9076518050       -0.9652881252       -4.8123496748
 H        -4.5344119147        1.6780461542       -6.5836123361
 H        -5.6586825925        1.6663333759       -5.2481608574
 H        -7.2124637905        2.7995648913      -10.4385819631
 H        -8.3333556050        3.1151068490       -9.0797353413
 H        -8.4765737136        0.9097956130      -11.2063636894
 H        -9.4947859846        2.4011068322      -11.2496585267
 H       -11.3934375353       -2.8352263619      -10.2304856170
 H       -10.9487004806       -2.3109584748       -8.5701315645
 H        -8.8807808429       -4.0032877840      -10.1280578021
 H       -10.3973705500       -4.8417092297       -9.5575572253
 H       -10.2014061582       -3.6075416350       -4.8353103975
 H       -10.7609816585       -5.2569946853       -4.3900635646
 H       -12.4400920128       -3.9267817331       -3.7935541317
 H       -13.1073837704       -4.6183176393       -5.1929873853
 H       -12.2145879555        0.9284651030       -4.1315276472
 H       -11.1103259753       -0.2401275650       -3.6148893065
 H       -12.3424472185        0.2432928382       -1.2673406561
 H       -13.0115181211        1.6705697315       -2.1347277755
 H        -8.0343447141        4.4731145367       -0.8969185616
 H        -9.2524340722        4.2289543871        0.3411495142
 H        -9.7452847328        4.3194135967       -1.4908381530
 H       -11.8669016485        1.7305040574        0.6180565421
 H       -11.2250197972        3.2356111318        0.3564457253
 H       -10.4740244227        2.1209370084        1.5532581866
 H        -9.0702885107       -0.2046982273       -1.0925492109
 H       -10.6845763560       -0.4994810481       -0.5188826721
 H        -9.4076977086       -0.1116478524        0.6657021531
 H       -14.5588030748       -0.4686070440       -6.5685487837
 H       -12.8870717283        0.2138060215       -6.3758284825
 H       -14.2426326661        0.5686898308       -5.2735638510
 H       -15.7046871671       -1.8066518256       -5.3073272185
 H       -15.1786821780       -2.7643459102       -4.0178449681
 H       -14.8254256055       -3.2237415708       -5.4497829550
 H        -8.2680900199       -7.0166793215       -6.9198396385
 H        -8.9002509016       -6.7296114724       -8.5766502335
 H        -9.9311174471       -7.2376223119       -7.3945404225
 H        -8.4619970240       -3.8487988240       -5.2641871431
 H        -7.2034109905       -4.7039346422       -6.0732325003
 H        -8.2923135620       -5.5765245100       -5.0370674019
 H       -12.7847537931        0.4801695830      -10.1598185317
 H       -12.0543270979       -0.4432471027       -8.9128345264
 H       -12.7060477344       -1.2512922831      -10.2953957371
 H       -10.1606558947        0.0021928228      -12.6941153048
 H       -11.5115146888        0.9913929921      -12.1262835656
 H       -11.7625084402       -0.7514285847      -12.3368673794
 H        -8.9968899627        2.2741024448       -6.8283441412
 H        -8.0750545550        1.5926994592       -5.5999998972
 H        -9.0645039987        0.4812920174       -6.5696148372
 H        -5.6103969227        3.1728305350       -7.6853820550
 H        -6.2626027961        2.9808560417       -6.1566631134
 H        -7.2383155233        3.7753540924       -7.3128893837
 H        -1.3528533403       -1.5964654898       -3.0044601479
 H        -3.0224599814       -1.7603535696       -3.2339909290
 H        -2.2191721871       -0.1127484968       -2.8666154530
 H         0.1867471746       -1.0616621188       -4.5707041831
 H        -0.4652323233        0.5004928618       -4.9940159351
 H        -0.3372932125       -0.7073514334       -6.4126782497
 H        -3.9144168897       -7.2524292344       -8.1421615076
 H        -5.4449826064       -6.4785951860       -8.7270118167
 H        -4.6668535406       -5.8025356480       -7.4372799255
 H        -2.0266785479       -5.8990917512      -10.6925199025
 H        -3.4223714476       -6.7114371714      -11.3682964232
 H        -2.5635637987       -7.3377544813       -9.9026668908
 H        -2.8118788518        1.8827244675      -11.2036286143
 H        -3.0004712124        0.7566724419       -9.7521116001
 H        -4.3484164949        1.6279870630      -10.6412119016
 H        -5.1627230494        0.3152789477      -12.7096318634
 H        -4.2686539815       -0.7383477113      -13.7055638207
 H        -3.6101896372        0.8549947131      -13.5455823343
 H         2.8147665978       -2.4195386060      -10.9945577471
 H         3.2609679504       -1.4390230517       -9.6636440916
 H         4.4423314285       -1.7189718029      -11.0621314984
 H         4.2941846775        1.2627472253      -11.0472801139
 H         3.2325922351        0.8428550845       -9.7027192989
 H         2.5434897699        1.8751682582      -10.6932105079
 H         5.8409475178        2.8412107688      -15.7439212678
 H         7.4214232499        1.9748587287      -15.8812388132
 H         6.3484863817        1.7845440703      -14.4002091109
 H         6.6986741397        0.5363969444      -18.1789529112
 H         5.2853484582        1.3500019188      -18.2455431115
 H         5.1301374613       -0.3812183172      -17.7797501560
 H         9.5683808008       -5.8079663834      -16.5373251087
 H         9.7081628998       -4.3404372317      -15.5462709950
 H        10.6808774988       -4.3847547364      -16.8047224303
 H         9.9610982005       -2.5193424584      -18.8055050041
 H         9.0873601795       -3.7122522117      -19.7377419130
 H        10.4653941730       -4.2540158624      -19.0212052016
 H         0.2686448070       -3.9915787692      -17.9153617020
 H         1.3569658452       -3.2414064560      -16.7706107653
 H         0.9789657781       -5.0496650926      -16.7800186454
 H         2.9984527245       -5.7498060050      -19.9499300288
 H         1.3963271996       -5.2935569119      -19.7333070774
 H         2.0546215754       -6.3839685724      -18.5566625668
 Na        3.3317442800       -1.5184518106      -15.7711209895
 Na       -6.7145401496       -2.0166674276       -9.1974570454
