232

 C         2.8717193450       -2.9259433485      -20.6224655465
 C         2.7039764385       -2.9660734986      -19.0562496104
 O         2.9114561307       -1.9583734105      -18.3768290513
 C         2.4887212444       -4.2476685810      -18.2805004632
 C         3.7692273292       -4.5179430140      -17.3860570862
 O         3.6834668954       -4.2564825234      -16.1776055200
 C         5.0597448019       -4.9756900247      -18.0569358906
 C         6.2611644078       -4.5872961693      -17.2706749687
 C         7.5119657277       -4.6799894784      -18.1427380240
 O         7.6005373103       -5.5380804825      -19.0403942258
 C         8.7762826316       -3.8026925012      -17.7496008807
 C         8.2288430596       -2.4255371578      -17.1852087687
 O         7.4751163079       -1.6962325546      -17.8070332874
 C         8.5076204457       -2.0715711264      -15.7081970914
 C         7.8868420639       -0.6589676055      -15.3562842043
 C         6.2727963103       -0.5685420179      -15.5359369951
 O         5.6221850177       -1.5971753058      -15.4561177464
 C         5.6287629466        0.7713659010      -15.9980529320
 C         4.1032012517        0.8777639895      -15.5918189050
 O         3.2471394694        0.3704956085      -16.2923673131
 C         3.6705489732        1.7340896816      -14.3916173554
 C         2.4347391740        0.9679834629      -13.6686623838
 C         2.7813966244       -0.2454088233      -12.9243603385
 O         3.1086950185       -1.3149143426      -13.4980826102
 C         2.7297124657       -0.2385379590      -11.3916701936
 C         1.1615720141       -0.2524270100      -10.9560635900
 O         0.5050113646        0.7245152481      -10.9009535573
 C         0.3237030342       -1.6062710158      -10.9669879733
 C        -1.1899995432       -1.2452581872      -10.6502448546
 C        -2.0097608593       -0.8200678054      -11.8925599331
 O        -1.4985136788       -0.7078217379      -12.9802365594
 C        -3.3731062092       -0.1972893261      -11.6953120058
 C        -4.3251524238       -1.2605054286      -10.9595639050
 O        -4.6005050443       -1.1117420103       -9.7526146416
 C        -4.9018025596       -2.5311004131      -11.7450795741
 C        -4.3082439083       -3.9310514372      -11.4113225220
 C        -4.4772696830       -4.3261733199       -9.9533407328
 O        -5.3861533564       -3.8576463960       -9.2650150150
 C        -3.5636358137       -5.4008749310       -9.3439349979
 C        -2.3854962610       -4.5721438033       -8.6982400931
 O        -1.3817999312       -4.3216245578       -9.3489891260
 C        -2.6776939734       -3.9898749113       -7.3292426914
 C        -1.7446328650       -2.8331718377       -6.7892218415
 C        -1.8957880960       -2.6530709372       -5.2419179499
 O        -1.8783266465       -3.6505886991       -4.5565183476
 C        -1.8120464787       -1.1703978720       -4.7411113980
 C        -3.0198393983       -0.4005365247       -5.5186755127
 O        -2.6688153414        0.2267056402       -6.5211692650
 C        -4.3784604148       -0.1860717561       -4.8786744659
 C        -5.1110012038        0.9671722420       -5.4985311527
 C        -6.1058536722        0.4764633514       -6.6751716654
 O        -6.0059924694       -0.6718028559       -7.0530652574
 C        -7.1606830128        1.4959557750       -7.2783477429
 C        -7.2735864649        1.3130961814       -8.8947890215
 O        -6.7319678823        0.3781987494       -9.4606436380
 C        -8.1250608894        2.3597539266       -9.7179712712
 C        -8.9428216783        1.5464203166      -10.7550614558
 C        -9.9432672628        0.8199569137       -9.8659630768
 O       -10.2358527785        1.3510132771       -8.8228553591
 C       -10.7726468287       -0.4752959030      -10.3736701084
 C       -10.0430248683       -1.8051186315      -10.1901326192
 O        -8.8602629527       -1.8148724269      -10.5232173915
 C       -10.6284942769       -3.0078654653       -9.4781561087
 C        -9.6408549533       -4.1470468872       -9.2850348731
 C        -8.9150323618       -3.9507074047       -7.9928775097
 O        -8.2970307017       -2.9329531803       -7.7774815919
 C        -9.0776689512       -5.1563243796       -7.0219680974
 C       -10.6445697268       -4.9207013333       -6.5760261356
 O       -11.5531529569       -5.1230629237       -7.4070992742
 C       -11.0906990781       -4.7460953764       -5.1372729637
 C       -12.3618298569       -3.9124065156       -4.9922139856
 C       -12.3248346992       -2.5327722350       -5.5510148109
 O       -11.6153559809       -2.1247118927       -6.4435864685
 C       -13.5667560116       -1.5119178067       -5.0153922320
 C       -13.0851300498       -0.9115857519       -3.6663827273
 O       -13.4926944052       -1.4590520542       -2.6432384966
 C       -12.0746895213        0.1621499614       -3.6164121071
 C       -12.1180615878        0.9314503013       -2.2086815548
 C       -10.8184289311        1.7559255994       -1.9372781158
 O       -10.4973572201        2.6765642740       -2.6803463647
 C       -10.0678343149        1.5951807789       -0.4390541553
 C        -8.7059852836        2.3995691113       -0.7054261288
 O        -7.7453482339        1.7108451776       -1.0336736587
 C        -8.6626580104        3.8934629563       -0.6745028840
 C       -11.0633531602        2.1019105301        0.6281347174
 C        -9.7199479824        0.1834563828       -0.1118720456
 C       -13.5997908988       -0.5412776567       -6.1567513249
 C       -14.8330739098       -2.2832799139       -4.8962003147
 C        -8.9054147561       -6.4543019027       -7.7342592750
 C        -8.0180772695       -5.0450309739       -5.9417732901
 C       -12.0184544684       -0.4714320331       -9.5782942058
 C       -11.0702039806       -0.2363653676      -11.9222083860
 C        -8.4314706310        1.1939844207       -6.5383298956
 C        -6.7302661550        2.9823852789       -7.1679781926
 C        -2.0868134911       -1.0865105252       -3.2378813523
 C        -0.4013945947       -0.4547251713       -5.1188226810
 C        -4.3984572231       -6.2937465438       -8.2878950601
 C        -3.0965988373       -6.3272996653      -10.3836400533
 C        -3.2841230127        0.9899424879      -10.6427893651
 C        -4.0293565615        0.2909434466      -13.0311688446
 C         3.6041157394       -1.3752048659      -10.7773317732
 C         3.3441136149        1.0564593833      -10.8176008509
 C         6.5532574241        1.9995044678      -15.5777596338
 C         5.6739505078        0.9059583364      -17.6125301065
 C         9.4487400065       -4.6120000481      -16.6665177104
 C         9.6614247896       -3.5508679496      -18.9612452519
 C         1.3120282998       -4.2017357889      -17.3435034019
 C         2.3443848657       -5.5801853461      -19.1628919973
 H         2.0078572860       -2.3504490533      -20.9561001264
 H         3.0180738948       -3.8875498484      -21.1226452732
 H         3.7717985414       -2.4277777370      -20.6850914127
 H         5.0875242861       -4.3218318163      -18.9529985599
 H         5.0260703285       -6.0507896097      -18.4383194387
 H         6.3193593858       -5.3490387158      -16.4753556098
 H         6.1334404384       -3.6365076908      -16.8167831804
 H         9.5626957524       -1.9942186648      -15.4787640305
 H         7.9905778377       -2.8781342852      -15.1657242170
 H         8.4478735727        0.0590484402      -15.9463666958
 H         8.0344239452       -0.2919113023      -14.2986967603
 H         3.2801640654        2.7295131152      -14.8331436849
 H         4.5250060538        1.8558667727      -13.6888021779
 H         1.6387598510        0.9387806650      -14.4525634077
 H         2.0595955024        1.6683281454      -12.9539749147
 H         0.6808002058       -2.3661218993      -10.2246080977
 H         0.3810164720       -1.8626023672      -12.0447061676
 H        -1.2967432706       -0.4355129691       -9.8977208869
 H        -1.6697019962       -2.1373467858      -10.3104030954
 H        -4.9744937405       -2.3701024312      -12.8207552030
 H        -5.9077869565       -2.3996161748      -11.3990412792
 H        -3.3228805552       -4.0263448305      -11.7957235569
 H        -4.9134928819       -4.6112672972      -11.9487198091
 H        -2.6275057839       -4.8789555673       -6.6916587763
 H        -3.6445849682       -3.5699287600       -7.3627943782
 H        -2.1108662031       -1.9452474220       -7.2884314056
 H        -0.6841473263       -2.9036716080       -7.1321067248
 H        -4.1452218729        0.1125169361       -3.8293604164
 H        -4.9229255452       -1.0894981027       -4.7386913401
 H        -4.4587590426        1.7266070860       -5.8176924732
 H        -5.6965452058        1.4671990633       -4.6664682741
 H        -7.4624839337        3.1471329690      -10.2025285807
 H        -8.7615578601        2.8967673102       -9.0476095633
 H        -8.2683933854        0.8463647264      -11.2564878099
 H        -9.4384892326        2.2616168873      -11.4642871288
 H       -11.4996021573       -3.2481330224      -10.0734298919
 H       -10.9688272770       -2.6269469778       -8.5161168990
 H        -8.9488355326       -4.1979096901      -10.0982438093
 H       -10.1644411045       -5.0656870758       -9.2880270086
 H       -10.2236701148       -4.2665528904       -4.6304968095
 H       -11.2528768545       -5.8172990216       -4.8741828593
 H       -12.6786327047       -3.8458286149       -3.9020721323
 H       -13.1894617181       -4.4585872078       -5.4471851325
 H       -11.9988828763        0.9038485482       -4.3995504349
 H       -11.1137726442       -0.3676638504       -3.7824578776
 H       -12.3599274913        0.2131238420       -1.4252285080
 H       -12.8648736682        1.6893835822       -2.2264933003
 H        -7.7579349683        4.2940124639       -1.1083853114
 H        -8.6248338600        4.2428226683        0.3491158722
 H        -9.5470267424        4.2557052680       -1.1606178045
 H       -12.1089262734        1.5695577618        0.5213262782
 H       -11.3478057035        3.1846392473        0.5839873779
 H       -10.7114039581        1.9194112180        1.6878459254
 H        -8.7502097521       -0.0220950388       -0.7044382465
 H       -10.4897004002       -0.5233202185       -0.4653546501
 H        -9.6387164488        0.1054016438        0.9470982519
 H       -13.9389014150       -1.0458809640       -7.1084082060
 H       -12.6649459242       -0.1213433514       -6.2304996128
 H       -14.3021678589        0.2920880740       -5.9884319926
 H       -15.6472966032       -1.6140703409       -4.5238350230
 H       -14.8080691885       -3.2036687297       -4.2816389647
 H       -15.2755463493       -2.6901734474       -5.8254560590
 H        -8.1984020567       -6.5321075799       -8.5473372718
 H        -9.8493079625       -6.8258761563       -8.0120198582
 H        -8.6163168795       -7.2258170540       -6.9699047947
 H        -8.0901141397       -4.0554081780       -5.4859286158
 H        -6.9977848758       -5.0191047906       -6.3869732420
 H        -7.9368207209       -5.7854034547       -5.2283199092
 H       -12.5251795964        0.4561360489       -9.7385752212
 H       -11.7387246098       -0.5036555758       -8.5057846816
 H       -12.7597838677       -1.3190647559       -9.8186924658
 H       -10.0476981709       -0.1775511750      -12.3620860361
 H       -11.4876681085        0.6850417743      -12.0720234911
 H       -11.7331506034       -1.0112302565      -12.3490777026
 H        -9.3649199990        1.6220414659       -6.9629394474
 H        -8.2539651996        1.3636865836       -5.4351980082
 H        -8.3283813822        0.0828674282       -6.5740809158
 H        -5.9571666983        3.1677051794       -7.8821232467
 H        -6.4351948077        3.2455524228       -6.1547473355
 H        -7.5904850483        3.5703097434       -7.3894860592
 H        -1.2218041460       -1.6835727066       -2.8066172985
 H        -3.0672278200       -1.5951164864       -2.8553984148
 H        -1.9687988330       -0.0642262536       -2.9879380347
 H         0.1910627993       -0.5417990283       -4.2738542024
 H        -0.4794631889        0.6231860541       -5.4612933268
 H        -0.1055511229       -1.1396987805       -5.8703088166
 H        -3.8597160243       -7.2370753545       -8.2108433818
 H        -5.4331362131       -6.3600188493       -8.6233442061
 H        -4.4510528840       -5.7288408582       -7.2989792567
 H        -2.7319390911       -5.7604195147      -11.2465289659
 H        -3.9009903851       -6.8251251729      -10.8381747901
 H        -2.4351821724       -7.0517168274      -10.1146038713
 H        -2.8361893979        1.8583924463      -11.1722320967
 H        -2.8451815663        0.7145747078       -9.7075680255
 H        -4.2327918934        1.3575322811      -10.5085141394
 H        -4.9462980291        0.8070142715      -12.8881238822
 H        -4.2970909546       -0.6391067129      -13.6129037709
 H        -3.1801326480        0.7785908008      -13.5409774095
 H         3.4143658398       -2.3759106026      -11.1769570951
 H         3.4425943727       -1.4427270188       -9.6816862505
 H         4.6696440897       -1.1088018637      -11.0048112394
 H         4.3379763882        1.1785104740      -11.2165680221
 H         3.3345883308        1.2207159119       -9.7628350319
 H         2.6652066938        1.8900869757      -11.0947341426
 H         5.9818642350        2.9268411195      -15.6574908025
 H         7.3586554417        2.0552465506      -16.2351499101
 H         6.9208326128        1.7853101438      -14.5363115373
 H         6.6871514257        1.1235042289      -17.9672342245
 H         5.2113316513        1.8377199592      -17.9492139391
 H         5.2652903258       -0.0196954325      -18.0856727278
 H         8.8562577185       -4.4370341348      -15.8115803218
 H        10.5206360721       -4.5231447756      -16.4743116219
 H         9.3898116228       -5.7264630523      -16.7927883219
 H         9.7634638430       -2.5370111377      -19.3518062568
 H         9.4361865421       -4.2182223773      -19.8023420863
 H        10.6825932926       -3.8752430702      -18.7164893266
 H         0.3708112598       -4.1221515026      -18.0120394309
 H         1.2202762579       -3.3465033452      -16.6468733740
 H         1.1081348349       -5.1447408015      -16.8886911516
 H         3.2136374716       -5.5893188350      -19.8678736582
 H         1.4818488215       -5.6185200517      -19.8875927678
 H         2.3205448364       -6.4958453257      -18.4929292867
 Na        3.4126029608       -1.9658906104      -16.0938907672
 Na       -6.6673537821       -1.9394872401       -9.1468371917
