232

 C         2.2696705319       -2.8397600516      -20.5559597934
 C         2.5686356222       -3.0190754591      -19.1074874430
 O         2.9433228627       -2.0527629881      -18.4688374674
 C         2.3964630063       -4.3546387845      -18.3116933897
 C         3.6806450606       -4.7169050281      -17.4282929075
 O         3.6419382640       -4.5589745990      -16.2322439184
 C         5.0168509211       -5.0636231504      -18.1918912684
 C         6.2881347465       -4.5385647768      -17.3977015269
 C         7.5663590605       -4.6737073573      -18.1427894549
 O         7.7153122194       -5.6194642151      -18.8826662698
 C         8.7959820492       -3.7144296084      -17.6181786743
 C         8.2917522424       -2.3014070428      -17.2550077226
 O         7.5753513795       -1.6140351417      -17.9800142908
 C         8.4934531956       -1.7838305441      -15.8050817173
 C         7.8138948903       -0.5357044053      -15.3210711099
 C         6.3213427532       -0.5270243135      -15.7205299384
 O         5.7012698319       -1.5662672900      -15.9403850024
 C         5.6392384082        0.9316883627      -16.0767223151
 C         4.1777712543        0.8139971158      -15.5628299533
 O         3.5090356489       -0.0678602097      -16.0694797028
 C         3.5074238175        1.6820759057      -14.5498034081
 C         2.3533039346        1.0758624078      -13.8626433283
 C         2.7900605207       -0.2500864853      -13.0395477114
 O         3.0558988450       -1.2677748475      -13.6093212430
 C         2.7487608095       -0.1794238938      -11.4842837535
 C         1.2230441981       -0.1270376502      -11.0898090231
 O         0.6308407875        0.9715779739      -10.9955167444
 C         0.4477578218       -1.3947801857      -10.9064599173
 C        -1.0758510436       -1.2731401187      -10.6215008817
 C        -1.8527726559       -0.8359586433      -11.8598974631
 O        -1.3804768758       -0.8220615415      -12.9732192533
 C        -3.3198505991       -0.2229621169      -11.6539646680
 C        -4.4071644308       -1.1765396030      -10.9884142528
 O        -4.6803119749       -1.1139760794       -9.8198396910
 C        -5.0794227189       -2.3537902117      -11.7741580394
 C        -4.4246572001       -3.6359990310      -11.3835104807
 C        -4.6137428438       -4.1982439569       -9.9768636340
 O        -5.4096313562       -3.8217416376       -9.1369383349
 C        -3.5946042801       -5.3207312530       -9.4493054024
 C        -2.4621133031       -4.3955506583       -8.9118392404
 O        -1.6236711853       -4.0359883443       -9.7129305812
 C        -2.4360056167       -3.9894075097       -7.3983625579
 C        -1.6590586214       -2.7434461401       -6.9296480062
 C        -1.7989482838       -2.6348915216       -5.3294666990
 O        -1.8758648357       -3.5901692613       -4.6265123951
 C        -1.7396193220       -1.0824423790       -4.5830243036
 C        -2.8738010527       -0.3015242653       -5.2728788462
 O        -2.6960162985        0.1563394986       -6.3691540571
 C        -4.3453504303       -0.1921132419       -4.6788619157
 C        -5.2839581490        0.9209805883       -5.2594905117
 C        -5.9542423320        0.4804019786       -6.5405066137
 O        -5.8488834436       -0.6538801310       -7.0047515631
 C        -6.9550551423        1.4766623731       -7.3088790973
 C        -7.1264291325        1.3660404483       -8.8562336248
 O        -6.6925871920        0.3632451907       -9.3549619752
 C        -8.0262713768        2.3438920852       -9.7909038833
 C        -8.9863974654        1.4358337634      -10.5955762889
 C       -10.2112570079        0.7972451089       -9.8395851726
 O       -10.5261494998        1.2679560995       -8.7280259416
 C       -10.8420255698       -0.5520318456      -10.3294954717
 C        -9.9406070721       -1.6892358305      -10.0949628259
 O        -8.7574578103       -1.6618939079      -10.3177398619
 C       -10.5924594758       -3.0397934314       -9.7189185743
 C        -9.5605675147       -4.1284774553       -9.4092022125
 C        -8.9042133137       -4.1497077496       -7.9927918711
 O        -8.2433650046       -3.1358031109       -7.6417147652
 C        -9.0595504103       -5.2569772654       -7.0134959934
 C       -10.5493517803       -5.1347573115       -6.5614264266
 O       -11.3590320920       -5.2759090079       -7.4291210266
 C       -10.9939625873       -4.7553108078       -5.1178433496
 C       -12.4170804610       -4.1239144513       -5.0318368023
 C       -12.3790027266       -2.5834765315       -5.6607682033
 O       -11.3845828232       -2.3257483232       -6.3304419246
 C       -13.4093941146       -1.5375242897       -5.1464090203
 C       -12.9643994210       -0.8586600367       -3.8091391997
 O       -13.4465154248       -1.2750998920       -2.8166617369
 C       -11.9694548408        0.2703098747       -3.6426780804
 C       -11.9982312757        0.7929093393       -2.2478729688
 C       -10.8261966701        1.8321681436       -1.9034333583
 O       -10.7758623031        2.8958386651       -2.4552945279
 C       -10.0876047151        1.6448718849       -0.6017424882
 C        -8.7253717637        2.3253654761       -0.7010978907
 O        -7.8047585053        1.6576689886       -1.0609471181
 C        -8.5494626282        3.8165941948       -0.4327439306
 C       -10.9720273704        2.3630816632        0.5248006540
 C        -9.8970494307        0.0758224626       -0.2163006374
 C       -13.6665369765       -0.4471048335       -6.2117043352
 C       -14.7978557811       -2.1471413094       -4.8511656284
 C        -8.8285852214       -6.6394658666       -7.7623883560
 C        -8.1490603881       -5.1082982341       -5.8414013478
 C       -12.2613157745       -0.5737552594       -9.5488338067
 C       -11.1393080045       -0.6775926860      -11.8425471720
 C        -8.3464948410        1.0128560420       -6.6609921112
 C        -6.8018186930        3.0112293645       -6.8144474595
 C        -1.9064468721       -1.3657647017       -3.0476364791
 C        -0.2835745993       -0.5772334823       -4.9287648391
 C        -4.2659500434       -6.1420367438       -8.2693927075
 C        -2.9466321685       -6.3484205206      -10.4028441018
 C        -3.2781625273        1.0184910036      -10.6824178452
 C        -3.8537753891        0.3797786274      -12.9645465869
 C         3.2769295949       -1.4804534777      -10.8615150788
 C         3.2807953305        1.0492406662      -10.8262398988
 C         6.3980461770        2.0897259690      -15.3374233380
 C         5.6345530470        0.9645846019      -17.6038826721
 C         9.5426428583       -4.6058696085      -16.6262035983
 C         9.5746744913       -3.3794185479      -18.9479320043
 C         1.1281492140       -4.1849744900      -17.5131398780
 C         2.2778834195       -5.4985465518      -19.2937017086
 H         1.6752728502       -1.9563026807      -20.6490368695
 H         1.6686623662       -3.6725295142      -20.8354737311
 H         3.2830279592       -2.9979646276      -21.0805586990
 H         4.9634153625       -4.6347274505      -19.2376358484
 H         4.9739159362       -6.1230479617      -18.4014221754
 H         6.2828212853       -5.1010662730      -16.4673233934
 H         6.1048741018       -3.4481924251      -17.1568094779
 H         9.5863294329       -1.6916098338      -15.6139467637
 H         8.0952473298       -2.6105832000      -15.1640465508
 H         8.3240812091        0.3405534835      -15.7586366319
 H         7.8691544382       -0.3941997548      -14.2711875674
 H         3.3174471595        2.5757226510      -15.0642084544
 H         4.2095315313        1.8982301070      -13.7545725044
 H         1.6571370020        0.8709724402      -14.6604242264
 H         1.7915033958        1.8276580336      -13.2876791973
 H         0.8067113354       -1.8556486761      -10.0174567079
 H         0.6099714417       -1.9363997238      -11.8265148655
 H        -1.3134286228       -0.5378786276       -9.8806499054
 H        -1.3748257976       -2.2746721362      -10.2564970551
 H        -4.9465751754       -2.1449602855      -12.8596086464
 H        -6.1909971808       -2.3864289059      -11.6213712225
 H        -3.2985416977       -3.5377532228      -11.5333058493
 H        -4.7977463193       -4.4264102291      -12.1335259556
 H        -2.0755428923       -4.8306979471       -6.7949197144
 H        -3.5529738579       -3.8187967971       -7.1960208342
 H        -1.8572903471       -1.7996189314       -7.4866753774
 H        -0.6346641992       -2.9691899765       -7.1710368720
 H        -4.4370441352       -0.2526886822       -3.6022077464
 H        -4.7687061972       -1.2004852844       -4.9976984818
 H        -4.8639957097        1.9540690324       -5.5239639622
 H        -6.0831548286        1.1782357625       -4.5922636390
 H        -7.3811446975        2.9549790538      -10.4134568000
 H        -8.5938570773        3.0910959139       -9.1807595330
 H        -8.3856081993        0.5769291726      -10.9926805924
 H        -9.3815811509        2.0221861440      -11.4254756488
 H       -11.2593927614       -3.3580515508      -10.5428740498
 H       -11.2356166462       -2.7961703845       -8.8535677088
 H        -8.7805334633       -4.1062338326      -10.1800564783
 H       -10.1358266940       -5.0473344216       -9.6281606572
 H       -10.2954189698       -4.0756904683       -4.7099688908
 H       -10.9803576044       -5.7423301803       -4.7032563924
 H       -12.6795379419       -4.0838631838       -4.0070163221
 H       -13.1542096885       -4.7935300180       -5.4815824754
 H       -12.0907427842        1.0967281859       -4.3462405804
 H       -10.9735932794       -0.0131897144       -3.9210015958
 H       -12.0079461020       -0.1120910325       -1.6485650858
 H       -12.9482332114        1.3530273827       -2.0520121236
 H        -7.6152099710        4.0678930039       -0.9157401095
 H        -8.3468817169        4.0471796489        0.6072865112
 H        -9.4170455112        4.3964336533       -0.6859860247
 H       -11.7209641942        1.7714484140        0.8268237516
 H       -11.3587615892        3.3399409623        0.2917416457
 H       -10.3716626350        2.6589001065        1.3148248933
 H        -9.5369021177       -0.4473323313       -1.0453060129
 H       -10.8963713014       -0.2871818552        0.0041161928
 H        -9.2611971934       -0.0441766669        0.7037526736
 H       -13.8751238626       -0.9594510099       -7.1256470986
 H       -12.8545122461        0.3527603076       -6.3760081942
 H       -14.5641157812        0.0571712851       -5.9153926687
 H       -15.4038875265       -1.4851631065       -4.2365970331
 H       -14.8379598407       -3.1790540290       -4.4327768794
 H       -15.4666001404       -2.2435797687       -5.7708748366
 H        -9.1957350853       -6.4683725093       -8.8255392288
 H        -9.4144906710       -7.5446230637       -7.4430371365
 H        -7.8093293259       -6.9385843321       -7.7628736582
 H        -7.9742247961       -4.1108128654       -5.4397029675
 H        -7.1688290913       -5.5067052180       -5.9532418526
 H        -8.5600549016       -5.8211680283       -5.0376922670
 H       -12.6959431150        0.4636722097       -9.4664813001
 H       -12.1574780644       -1.0135283270       -8.5559297512
 H       -12.9667279568       -1.1372522627      -10.0686922305
 H       -10.2286707085       -0.6584005943      -12.3790817389
 H       -11.8843370831        0.1859923715      -12.1260954982
 H       -11.7261968470       -1.5792480392      -11.9854849062
 H        -9.0163505541        1.8153977003       -7.0642672656
 H        -8.2970682026        0.9568358539       -5.5636829869
 H        -8.6203363571        0.0316748524       -6.9645459977
 H        -5.7359566833        3.3133261319       -7.0443174181
 H        -7.1276799685        3.1155627929       -5.7307863214
 H        -7.5104449663        3.6872178044       -7.4131718892
 H        -1.1727946528       -2.1109583032       -2.8284146431
 H        -2.7357329577       -1.8748491545       -2.9851069811
 H        -1.9110965565       -0.4733608525       -2.3482145201
 H         0.3594957762       -1.0416665491       -4.1427840464
 H        -0.3891893501        0.4500994530       -4.7258645770
 H         0.0325364666       -0.7500692109       -5.9456066315
 H        -3.4645210539       -6.4987362254       -7.6060871344
 H        -4.6978375839       -7.0017163770       -8.8148237715
 H        -4.9999155354       -5.5950014971       -7.7886307519
 H        -2.4036130747       -5.9432353719      -11.2255823005
 H        -3.6628339562       -7.0244067509      -10.9235760547
 H        -2.2881165987       -7.0888049369       -9.8016002641
 H        -2.5058840238        1.7284946275      -10.9424916982
 H        -3.1523368957        0.5949590506       -9.6828754546
 H        -4.2778551648        1.5603453094      -10.7285140534
 H        -4.9119453578        0.6101688397      -12.7699699644
 H        -3.8049301724       -0.3924149438      -13.7157488620
 H        -3.2154363210        1.1459751384      -13.3035215177
 H         2.8725583132       -2.2879871255      -11.4310219635
 H         3.0122193163       -1.6375943698       -9.8434850176
 H         4.3166617168       -1.5144574246      -10.8491105157
 H         4.2785661499        1.3234632484      -11.1666326943
 H         3.3575062461        0.8254223353       -9.7446787122
 H         2.6595962708        1.9338889831      -10.9850220434
 H         5.9969193386        3.0077924628      -15.7257920801
 H         7.4948840075        2.0697283328      -15.6715138059
 H         6.3171091026        1.9469824134      -14.3105258077
 H         6.5648761387        0.5128886663      -17.9844534780
 H         5.7164892960        2.0312441243      -17.9556696157
 H         4.7998611187        0.4571397148      -17.9999310331
 H        10.2745356824       -4.1103760876      -15.8510162145
 H        10.1655371183       -5.2258762677      -17.2414518665
 H         8.9822860611       -5.2719747930      -15.9850561528
 H         8.9264886760       -2.9902805058      -19.6664838272
 H        10.1703184313       -4.1807939000      -19.4309751954
 H        10.2110879749       -2.4868870299      -18.7732302503
 H         0.2206607935       -4.2085412903      -17.9935074175
 H         1.2177551642       -3.2379834331      -17.1225873657
 H         1.0741484464       -4.8779531309      -16.6839764707
 H         3.0452554157       -5.7103906866      -20.0035621629
 H         1.3795100496       -5.3893286027      -19.8420863655
 H         2.1171939563       -6.3378480064      -18.6827162059
 Na        3.4014770387       -2.2274393637      -16.0438479532
 Na       -6.8950133587       -1.6796074928       -8.7965120937
