232

 C         1.9923714681       -2.8201613549      -20.5640288694
 C         2.5197684884       -2.9677556266      -19.0610255705
 O         3.0471804060       -2.0993034513      -18.3888002453
 C         2.3290204270       -4.3950402539      -18.3730736646
 C         3.6532567785       -4.6924279813      -17.6218794748
 O         3.5974484744       -4.6580817188      -16.3572628729
 C         4.9818851398       -5.1146238788      -18.2284722257
 C         6.0995524113       -4.4951627591      -17.3693673993
 C         7.5193332291       -4.6869827273      -18.0253758737
 O         7.7899621947       -5.5400420775      -18.8869935684
 C         8.7953151960       -3.6816723487      -17.7202214400
 C         8.2532746439       -2.3591489543      -17.1799805766
 O         7.7335474595       -1.6406891321      -18.0422696585
 C         8.5154965029       -1.8417138574      -15.6851684226
 C         7.8014849905       -0.4567517313      -15.4502640618
 C         6.3396557442       -0.4498055066      -15.8238565681
 O         5.7583254413       -1.4863122847      -16.0904205659
 C         5.6277984356        0.8482681745      -16.0331160344
 C         4.1003554061        0.6932264968      -15.5709306031
 O         3.4246551901       -0.1803549062      -16.0885413928
 C         3.5655435919        1.6787180874      -14.5332081362
 C         2.4136031756        1.0292773226      -13.8276623875
 C         2.6788497877       -0.2482065616      -13.1423448438
 O         3.0514864342       -1.2448776705      -13.7095701062
 C         2.6331949675       -0.1833097434      -11.5307701196
 C         1.1228760528        0.0208402542      -11.1924929551
 O         0.6025848648        1.1424354434      -11.0790593631
 C         0.4131502607       -1.4215936354      -10.8740008498
 C        -1.0718970238       -1.1657850148      -10.5872541420
 C        -1.9242659446       -0.8229543972      -11.8452357982
 O        -1.4347635339       -0.8945269708      -12.9425037982
 C        -3.3734418223       -0.1855533364      -11.5773640816
 C        -4.3288963606       -1.1923661799      -10.9282398425
 O        -4.5673313449       -1.1257104351       -9.6990432206
 C        -4.9725380744       -2.3607256794      -11.7991450138
 C        -4.3658134655       -3.7078548021      -11.3995860297
 C        -4.6108266246       -4.1581848543       -9.9314524450
 O        -5.5465681758       -3.7343280790       -9.2670889552
 C        -3.5663286286       -5.2526242433       -9.3248717789
 C        -2.4515783241       -4.2659968967       -8.8792273892
 O        -1.6468223047       -3.8321067402       -9.7182847335
 C        -2.3948953693       -4.0175033763       -7.3797156330
 C        -1.6611028815       -2.6978358453       -6.8714114297
 C        -1.7312749988       -2.6079312117       -5.3576229482
 O        -1.9531591896       -3.6422104788       -4.7600412056
 C        -1.7365765187       -1.2872804110       -4.6556893580
 C        -2.8839217417       -0.3459696659       -5.3022792114
 O        -2.6342908927        0.2697830983       -6.3200199539
 C        -4.2795697846       -0.2267811956       -4.5849743629
 C        -5.1667027496        0.7920073216       -5.2823019714
 C        -5.9038776254        0.4368851736       -6.5917312899
 O        -5.7693898912       -0.6986692990       -6.9972077010
 C        -7.0159277885        1.5882126817       -7.2241415962
 C        -7.1333784709        1.3826974301       -8.7688399027
 O        -6.5796717642        0.4574230165       -9.3311231035
 C        -8.0793580006        2.2066853486       -9.6086999193
 C        -9.0311742316        1.3890449210      -10.4785134373
 C       -10.2820886715        0.7927447727       -9.7506372347
 O       -10.7080251784        1.2953266565       -8.6901886747
 C       -10.9397596563       -0.5246751341      -10.3996542075
 C        -9.8976126868       -1.6441471912      -10.0107866375
 O        -8.7488195683       -1.3858009428      -10.2012810123
 C       -10.4526099250       -3.1157049839       -9.6266490030
 C        -9.4695864731       -4.2871047922       -9.4170114160
 C        -8.8514054444       -4.1889308346       -7.9743875096
 O        -8.2108710565       -3.1892294966       -7.6368958994
 C        -9.1039483343       -5.3805351103       -6.9750978630
 C       -10.6549083395       -5.1708943164       -6.6462548937
 O       -11.5396901609       -5.4450411262       -7.4916457760
 C       -11.0003247400       -4.6352112035       -5.1972756665
 C       -12.3672794494       -4.0651193741       -5.0709064026
 C       -12.2747943751       -2.5835462659       -5.6121487194
 O       -11.3110698383       -2.3818608644       -6.3142345692
 C       -13.4090693991       -1.6121462944       -5.2187598773
 C       -12.9418752617       -0.9179954097       -3.8277343891
 O       -13.4459598741       -1.3076255780       -2.8039728066
 C       -11.9109906181        0.2751049792       -3.8139197118
 C       -11.9696554752        0.8024654770       -2.3929961061
 C       -11.0009318177        1.9024637597       -1.8340113888
 O       -10.9321395530        2.9154469970       -2.5103812075
 C       -10.1406030416        1.6782294305       -0.5390620349
 C        -8.6518484572        2.2583176492       -0.6898173860
 O        -7.7040863144        1.5938311715       -1.1105656128
 C        -8.5526804046        3.7766429570       -0.3410897227
 C       -10.8035952942        2.4456565266        0.5643471336
 C        -9.9858928519        0.1508774659       -0.1773458756
 C       -13.5809987062       -0.3914292911       -6.2229137441
 C       -14.7321841094       -2.2292355612       -4.8790753760
 C        -8.7958991708       -6.7855455264       -7.5736219375
 C        -8.1819978792       -5.2228364906       -5.7333330060
 C       -12.2677502451       -0.6860813222       -9.5719812963
 C       -11.1771919667       -0.6031595668      -11.9505939180
 C        -8.3646801664        1.0064078190       -6.7666726595
 C        -6.7601488271        2.9896401652       -6.6631178754
 C        -1.9441375617       -1.5542460709       -3.1736056283
 C        -0.3244657549       -0.4562340060       -4.8919044188
 C        -4.2392411720       -6.1015781292       -8.2329446869
 C        -3.0680144411       -6.0794767631      -10.4672100340
 C        -3.1750468851        1.0256235153      -10.6877725272
 C        -3.7616343990        0.3929805490      -13.0695466588
 C         3.2090597086       -1.4924973774      -10.9902717343
 C         3.4596302126        1.0234988758      -10.9312440405
 C         6.3253317607        2.1258405333      -15.3060067935
 C         5.6848201686        1.0799604018      -17.5597585618
 C         9.6694160796       -4.3551781416      -16.6599567878
 C         9.6463837142       -3.3598046224      -18.9695224441
 C         1.0684717738       -4.2340892458      -17.5026099711
 C         2.1223358432       -5.7133660546      -19.4082429777
 H         1.7485517136       -1.7566584355      -20.6998171531
 H         1.0077569894       -3.3258202829      -20.6588680006
 H         2.7397725575       -3.3675683640      -21.1667497900
 H         5.0101350084       -4.9316822130      -19.3255677907
 H         4.9748921455       -6.2196457037      -18.2101625797
 H         5.9547391673       -4.9433339120      -16.3775194422
 H         5.9321654368       -3.3967479823      -17.3047860713
 H         9.5927543916       -1.7588104280      -15.7108990351
 H         8.2118506675       -2.5283050304      -14.8425035194
 H         8.2428347711        0.3493183495      -16.0803445284
 H         7.8662883339       -0.0721091845      -14.4342621223
 H         3.3998969660        2.6403032883      -15.0073131816
 H         4.3573472911        1.8447562841      -13.7945741535
 H         1.6295462413        0.8696294370      -14.6896412815
 H         1.8588819331        1.6743747604      -13.1853891416
 H         0.8237630119       -1.8528480826       -9.9561604519
 H         0.5097195061       -2.0230738700      -11.7786119693
 H        -1.2465101335       -0.3147290670       -9.8501610466
 H        -1.4835121109       -2.0911468141      -10.1503799527
 H        -4.8707075581       -2.0696446208      -12.8691223713
 H        -6.0331914665       -2.4803138094      -11.6553162897
 H        -3.2371532003       -3.7193842087      -11.5566267710
 H        -4.8182468444       -4.4699788106      -12.0459553922
 H        -2.0779870529       -4.9431437021       -6.8800000983
 H        -3.4984520656       -3.8590199048       -7.1783901836
 H        -2.1419997486       -1.8242024792       -7.3388975392
 H        -0.6555049537       -2.6683070001       -7.2636438338
 H        -4.0066230121        0.3240797047       -3.6299667871
 H        -4.6894962557       -1.1294268782       -4.1768183926
 H        -4.7370946061        1.7753532355       -5.3486487061
 H        -6.1163608980        0.9749550447       -4.6707653922
 H        -7.3880992308        2.8298033308      -10.2253689870
 H        -8.5884691266        2.9199982615       -9.0899149482
 H        -8.5098187970        0.6705453709      -11.1036321014
 H        -9.5144585116        2.1219651003      -11.1156261462
 H       -11.0976911616       -3.3452001735      -10.4562869642
 H       -11.1413159966       -2.9216781149       -8.7240724891
 H        -8.6542443105       -4.2678312121      -10.2278674412
 H       -10.0677542954       -5.2139578714       -9.6404031621
 H       -10.3024216468       -3.8248162589       -5.0074425320
 H       -10.8556105739       -5.5593186418       -4.6103649663
 H       -12.7336728812       -4.2107876259       -4.0295705000
 H       -13.0812014878       -4.5487690603       -5.7034254916
 H       -12.2807738227        1.0299215206       -4.5382802312
 H       -10.9145816090        0.1006806393       -4.2284807856
 H       -11.8783585626       -0.1538671934       -1.8348807386
 H       -13.0131980250        1.1549767713       -2.2261903302
 H        -7.5596141260        4.2494425804       -0.5684140663
 H        -8.4631770974        3.6544151876        0.7907366026
 H        -9.4588030004        4.3506565690       -0.4425696675
 H       -11.7477135604        1.9442832455        0.8167866963
 H       -11.0195863924        3.4552998900        0.2486356417
 H       -10.2438631599        2.7732704015        1.3759922107
 H        -9.9504583790       -0.4608706496       -1.1151659120
 H       -10.6775692787       -0.2386779925        0.5091011722
 H        -9.0043784311        0.0955083563        0.2373703208
 H       -14.0406924149       -0.7464554262       -7.2139392231
 H       -12.6079619879       -0.0150936585       -6.4503937077
 H       -14.1581445432        0.3868891253       -5.7528553585
 H       -15.4437624383       -1.5868336168       -4.5196965745
 H       -14.6604239751       -3.0358771633       -4.2256417055
 H       -15.1786028893       -2.5951500461       -5.7594924847
 H        -9.6239418330       -7.0128667588       -8.3125687213
 H        -8.8589954896       -7.6010615722       -6.8732300255
 H        -7.7996938240       -6.8342417852       -8.0269007882
 H        -8.1881591597       -4.1573833767       -5.4050600397
 H        -7.1362640433       -5.3980281505       -5.9290478347
 H        -8.3843724423       -5.8612890977       -4.8896971352
 H       -12.8741985175        0.1577756712       -9.6489439732
 H       -12.0358744269       -0.9243033389       -8.5507781558
 H       -12.8351496130       -1.5126639758       -9.9650138457
 H       -10.2098376004       -0.5204889694      -12.4246627731
 H       -11.9446315406        0.0200935485      -12.3244617184
 H       -11.5858554090       -1.6360325797      -12.0721968280
 H        -9.1723170150        1.6694277872       -7.0460787479
 H        -8.3403506636        0.6886770345       -5.7487303989
 H        -8.3929293795        0.1148892037       -7.3018668314
 H        -5.7307783528        3.2031271487       -6.8269074316
 H        -7.1307581771        3.0701606675       -5.6219280066
 H        -7.3533474099        3.6949929544       -7.2420168532
 H        -1.2784938104       -2.2908076102       -2.6983096185
 H        -2.9876454422       -1.9030316403       -2.9563116530
 H        -1.8701196453       -0.5874044730       -2.8017894418
 H         0.5031448667       -1.1159050791       -4.7031430836
 H        -0.4408510113        0.3785656864       -4.1056885674
 H        -0.3417466683        0.0163562949       -5.8991522760
 H        -3.6827892260       -6.1835291788       -7.3123968406
 H        -4.3193161537       -7.0542218073       -8.6939564711
 H        -5.1809431091       -5.6362075634       -8.0643825143
 H        -2.4515816433       -5.5132252352      -11.2481203720
 H        -3.7863952831       -6.6412960587      -11.0705748260
 H        -2.4175511204       -6.8788519268      -10.0459793916
 H        -2.2044260378        1.5700245363      -11.0474104767
 H        -3.1089363180        0.7855008353       -9.6298728946
 H        -4.0306888412        1.6757598420      -10.8843138152
 H        -4.7922244021        0.5208275384      -13.1167570854
 H        -3.4451392286       -0.4124991067      -13.8065473731
 H        -3.1812215855        1.2462459539      -13.3111629849
 H         2.8010412930       -2.4197458681      -11.3663633296
 H         3.2077778823       -1.5245570314       -9.8904290269
 H         4.2632775021       -1.4187872338      -11.1216381471
 H         4.5247617132        1.1382590341      -11.2475983520
 H         3.4799338104        0.8832175055       -9.8201682947
 H         2.9956537009        2.0210737778      -11.2417432355
 H         5.7195420168        2.9691499706      -15.6539226833
 H         7.3321569936        2.2828059299      -15.6960066534
 H         6.3288899136        2.0030742574      -14.2398743704
 H         6.6156850868        0.6878596099      -17.9025557058
 H         5.8128903745        2.2224828582      -17.6490409023
 H         4.8742289061        0.6721894160      -18.1963081181
 H        10.7112684428       -3.9398907298      -16.6249102320
 H         9.8474020274       -5.4122919030      -16.7609767054
 H         9.3418099317       -4.1539538181      -15.6400947118
 H         9.0957500751       -3.4436873531      -19.8536751088
 H        10.5067671789       -4.0362050746      -19.1607545480
 H         9.9286332224       -2.2832189765      -19.0264727189
 H         0.0861836115       -4.3146991606      -18.0800847124
 H         0.9803946760       -3.3745396083      -16.8525177211
 H         1.1152875023       -5.1195022797      -16.8888510145
 H         2.8761164644       -5.7656995503      -20.1710994692
 H         1.2123093292       -5.6413681240      -19.9431660739
 H         2.1454972972       -6.6401797050      -18.9211125610
 Na        3.4229594181       -2.2911202941      -15.8949502758
 Na       -6.8601341687       -1.7472948845       -8.6064006387
