232

 C         1.8034678182       -2.7285768581      -20.3909280298
 C         2.5007200447       -3.1121359979      -19.0848234897
 O         3.0209444389       -2.2265990226      -18.4517099856
 C         2.3149467613       -4.5426916714      -18.4786832938
 C         3.5931733296       -4.8099397311      -17.6469948555
 O         3.4913371057       -4.6095762654      -16.4345577566
 C         4.9815689588       -5.1155747953      -18.2200736460
 C         6.1601689245       -4.3926366075      -17.5085515006
 C         7.5864832556       -4.6611925722      -18.0746308928
 O         7.7323835731       -5.5221712391      -18.8544742014
 C         8.7749538305       -3.6408618718      -17.6719631947
 C         8.2449193141       -2.2277440895      -17.1552744892
 O         7.7914399580       -1.4636052653      -17.9755459675
 C         8.4748216925       -1.8775773584      -15.7603551221
 C         7.8820731285       -0.4614368822      -15.6588789141
 C         6.3502912504       -0.4978594447      -15.9532043487
 O         5.8217759647       -1.5645646348      -16.0841060714
 C         5.6031565090        0.9454498553      -16.1000884443
 C         4.1261801664        0.7713120339      -15.6375820049
 O         3.3393538188        0.0311470623      -16.1682794343
 C         3.5821503937        1.6262678162      -14.4971304002
 C         2.2199117804        1.0325350234      -13.8604465401
 C         2.6781671226       -0.1729591289      -13.1460052559
 O         2.9813159669       -1.2757988164      -13.6382687751
 C         2.6520931027       -0.2161262173      -11.5540973517
 C         1.0619441993        0.0272445064      -11.1935156707
 O         0.6022741858        1.0796271337      -11.2037459015
 C         0.2764327028       -1.2057039053      -10.8528844158
 C        -1.1451829840       -0.8932059772      -10.5108455982
 C        -1.9068216286       -0.6513484935      -11.8374327830
 O        -1.4833523623       -1.0985859271      -12.9075197278
 C        -3.2838115958       -0.0096950604      -11.6186695697
 C        -4.2267529009       -1.2049543089      -10.9022276318
 O        -4.4004242647       -1.1901251469       -9.7162280709
 C        -4.8950593422       -2.3260872140      -11.7396422239
 C        -4.3276248155       -3.7149144426      -11.3931767915
 C        -4.6612743104       -4.1461326650       -9.9324123768
 O        -5.6473583521       -3.7204429390       -9.3888606976
 C        -3.6722544291       -5.1638535134       -9.3591770929
 C        -2.4192670856       -4.2294203352       -8.7886004181
 O        -1.6548452278       -3.7325982901       -9.5673492306
 C        -2.3762124627       -3.9296219157       -7.3234863287
 C        -1.6425063820       -2.6312008672       -7.0080059384
 C        -1.7563634340       -2.6853119100       -5.4591754613
 O        -1.9957974038       -3.7212905613       -4.8348238566
 C        -1.8130041643       -1.2832505972       -4.6673716451
 C        -2.8565806405       -0.3206071778       -5.3041960435
 O        -2.6184524331        0.3574057249       -6.3183946603
 C        -4.1514317354       -0.1476808794       -4.5522356075
 C        -5.0833906908        0.9131981980       -5.1374875152
 C        -5.9214220256        0.4214227731       -6.5389187726
 O        -5.7369721752       -0.6696004843       -6.9934681083
 C        -6.9488333621        1.3767993901       -7.0721913696
 C        -7.0592550584        1.3277144231       -8.7065637606
 O        -6.4107760501        0.5956477769       -9.4209041271
 C        -8.2241952838        2.2623021562       -9.3767926963
 C        -9.1331667136        1.4866498118      -10.4219831051
 C       -10.3311861384        0.8199784596       -9.7453139288
 O       -10.8427661030        1.2569572243       -8.7953188270
 C       -10.9745825964       -0.5924136610      -10.3139545657
 C        -9.8567724478       -1.7095654218       -9.9893068552
 O        -8.6640905662       -1.3373481748       -9.9850361969
 C       -10.3340209944       -3.0765020982       -9.5572260157
 C        -9.3371411180       -4.2540705773       -9.3756067513
 C        -8.7620374500       -4.2677516494       -8.0149210348
 O        -8.2022647558       -3.3629882452       -7.5167562576
 C        -9.1870610037       -5.4178213582       -6.9966763916
 C       -10.7219997115       -5.3117349426       -6.6617523465
 O       -11.5829176640       -5.5786909755       -7.4410683756
 C       -11.0104880936       -4.7357530564       -5.2215304961
 C       -12.3086335733       -4.0087932020       -5.1648676130
 C       -12.2660337753       -2.6183356547       -5.6505027268
 O       -11.3678931288       -2.1369603293       -6.3419350393
 C       -13.3472275915       -1.5977697072       -5.2160639466
 C       -12.9232856448       -0.9238748041       -3.8787343449
 O       -13.3703095601       -1.3965884630       -2.8160755593
 C       -11.9636166461        0.2338737838       -3.7761572444
 C       -11.9760521439        0.7891057968       -2.3073327968
 C       -10.9950182931        1.8879917349       -1.9980492787
 O       -10.9977743950        3.0120414096       -2.4925941640
 C       -10.1408548246        1.7271498534       -0.5853146226
 C        -8.6835732004        2.2647794290       -0.7676060249
 O        -7.7241580425        1.5933793499       -1.1575134281
 C        -8.3820884777        3.6868907077       -0.2841559790
 C       -10.8284500770        2.4402076369        0.6497005516
 C       -10.0052418911        0.2459973697       -0.1252387551
 C       -13.4459726311       -0.4470922087       -6.3065925279
 C       -14.6863585125       -2.3433750018       -5.0387343427
 C        -8.9071792974       -6.8409782088       -7.4383201518
 C        -8.2258535494       -5.2766425561       -5.6773523979
 C       -12.3558395204       -0.8797068600       -9.6536587440
 C       -11.1559848634       -0.4091413025      -11.8050531144
 C        -8.4643219656        0.9208645297       -6.6612787056
 C        -6.6871138090        2.8080964363       -6.6132313237
 C        -1.9870618468       -1.6311299580       -3.2237520919
 C        -0.4636009922       -0.4661093294       -4.8402412458
 C        -4.2858802276       -6.0094546615       -8.2474610086
 C        -3.1178335298       -5.9517225815      -10.5786956983
 C        -3.0881154185        1.1724623684      -10.6513931097
 C        -3.8201649741        0.2628185565      -13.0898115434
 C         3.2547915977       -1.5213058030      -11.0992016339
 C         3.5699349854        0.9607563160      -11.1635248068
 C         6.2577336678        2.0835502585      -15.2930349097
 C         5.7016675076        1.2715762108      -17.6097513905
 C         9.8683451755       -4.2592529235      -16.5908242255
 C         9.5779697642       -3.4854342003      -18.9553065139
 C         1.1332885093       -4.4240561772      -17.5279132250
 C         1.9850279211       -5.6660797802      -19.4916520508
 H         2.1192874802       -1.6808894678      -20.5052286400
 H         0.6927606963       -2.5721687098      -20.2322026874
 H         2.0129122589       -3.4551046804      -21.0918860966
 H         4.8534138143       -4.8262298622      -19.2446607591
 H         5.1742669891       -6.2167448546      -18.3696847055
 H         6.2175562736       -4.8843569428      -16.4975926252
 H         5.9147679775       -3.3749984712      -17.3684019299
 H         9.5271229675       -2.0322064919      -15.4894595663
 H         7.8747036485       -2.4798939703      -15.0891786710
 H         8.3055832529        0.3156506736      -16.2830938734
 H         8.0280634129       -0.1251146571      -14.5787624040
 H         3.4726416550        2.6694550155      -15.0300222677
 H         4.2740675457        1.8674067223      -13.6456975497
 H         1.3747213931        0.8737982902      -14.5685503974
 H         1.7634995114        1.7113250079      -13.1068799437
 H         0.7393515587       -1.7516706935       -9.9860947344
 H         0.2395855936       -1.8203921879      -11.7906669537
 H        -1.3125880146       -0.0207187393       -9.8170429229
 H        -1.5571444758       -1.8139231377      -10.0685027704
 H        -4.7931801348       -2.0497977222      -12.7642273506
 H        -5.9650284837       -2.3993068385      -11.6091573960
 H        -3.2694273451       -3.7081662496      -11.4688274104
 H        -4.7344677336       -4.4146611360      -12.0755592360
 H        -1.6914894146       -4.7273120644       -6.9517625246
 H        -3.3142770601       -4.0264668648       -6.8507772365
 H        -2.0840182536       -1.7387674783       -7.3978428132
 H        -0.5974032732       -2.6856497577       -7.4182417503
 H        -3.8514043067        0.1102249454       -3.5111396029
 H        -4.5874400456       -1.1017654837       -4.3863824437
 H        -4.5445891981        1.7849587107       -5.3972627844
 H        -5.9232462648        1.2671144538       -4.4679192740
 H        -7.6615474374        3.0447447311       -9.8745010745
 H        -8.7625793171        2.8615673803       -8.6532536215
 H        -8.4887792136        0.7314903967      -10.8062354337
 H        -9.4855330759        2.0767625272      -11.2909066284
 H       -11.1021150759       -3.3702476447      -10.2916778136
 H       -10.8563903928       -2.7726550525       -8.6372469669
 H        -8.5175116512       -4.2277729990      -10.1526227857
 H        -9.9336923410       -5.1405061816       -9.6372568525
 H       -10.2535893095       -3.9137904746       -5.1320537312
 H       -10.9136603028       -5.5670982282       -4.4888728660
 H       -12.5671416425       -3.9378480748       -4.0636132391
 H       -13.1791445453       -4.4858045181       -5.6322413981
 H       -12.1673293347        1.0122212544       -4.5248331828
 H       -10.9530131969       -0.1159707423       -4.1294743521
 H       -11.8857995349       -0.1049069880       -1.6702874205
 H       -12.9671384078        1.1899558007       -2.1057787148
 H        -7.3309778868        3.9733193089       -0.4798067378
 H        -8.4970550305        3.7532557841        0.8301829466
 H        -9.2123109845        4.3715328649       -0.6528863640
 H       -11.9014412041        2.0343054051        0.7443665963
 H       -10.8107155325        3.5245772781        0.5733473474
 H       -10.2422698347        2.5337921064        1.6076212179
 H       -10.1023085023       -0.4819426363       -0.9793931077
 H       -10.6741390820       -0.0298490714        0.6870852501
 H        -8.9971517650        0.1022485162        0.1897623734
 H       -14.1289983098       -0.8060797161       -7.0838861535
 H       -12.5171401495       -0.3975517964       -6.7833846976
 H       -13.7111659177        0.5648683956       -5.9008629366
 H       -15.6220859157       -1.8592627034       -5.0602091928
 H       -14.6547060259       -2.8263790201       -4.1025055980
 H       -14.7674021759       -3.0217285655       -5.7971622884
 H        -9.7590818472       -7.4174376353       -7.5684816018
 H        -8.4041133032       -7.3702497733       -6.6576611549
 H        -8.1623856938       -6.8823627003       -8.2966030541
 H        -8.3221834270       -4.2745482477       -5.3017165466
 H        -7.1457855551       -5.3136890109       -5.9372676928
 H        -8.3512836200       -5.9399992942       -4.8974034726
 H       -13.0861943067       -0.2699493472      -10.0876851232
 H       -12.3328886848       -0.8154902165       -8.6034954540
 H       -12.6472897597       -1.9195188742       -9.9291452315
 H       -10.1316934924       -0.1541415966      -12.1487600700
 H       -11.9007119264        0.2459967816      -12.0494604828
 H       -11.4652558422       -1.3597916277      -12.2262776168
 H        -9.0603737807        1.6597922807       -7.0818866899
 H        -8.4869723196        0.8235690696       -5.6063797169
 H        -8.6537790909       -0.1101351310       -7.1341698136
 H        -5.7314970626        3.1591559624       -6.8519333243
 H        -6.9665812346        2.9222027539       -5.6300596076
 H        -7.3656062972        3.3552271478       -7.1592168850
 H        -1.2181107152       -2.2887514466       -2.8147565080
 H        -3.0583831632       -2.1101893689       -2.9736479698
 H        -2.0009167159       -0.6257800244       -2.7643408294
 H         0.2698655121       -1.1474090677       -5.2636478681
 H        -0.1821422635        0.0195371089       -3.8771099112
 H        -0.7348639738        0.3011068843       -5.6136812578
 H        -3.6475423702       -5.8880050821       -7.4232088784
 H        -4.2280105554       -7.0180189577       -8.5321701799
 H        -5.2848916315       -5.5727648388       -7.9543077191
 H        -2.3738430252       -5.4778688228      -11.2572483867
 H        -3.8397906620       -6.4039503095      -11.2606807968
 H        -2.6241266202       -6.7704275319      -10.1520877829
 H        -2.0919445369        1.6429289100      -10.7899095380
 H        -3.1201855453        0.7448914985       -9.6103395738
 H        -3.9148082858        1.8467173005      -10.7501571801
 H        -4.8884868474        0.4065900373      -12.9820950575
 H        -3.5904550807       -0.5512984162      -13.7803763682
 H        -3.3456419999        1.1896583669      -13.4897816772
 H         2.6731008789       -2.4248591301      -11.3388669464
 H         3.3952590500       -1.4697058506      -10.0026905586
 H         4.3530283520       -1.6035414233      -11.3629378740
 H         4.6464027797        0.8454521359      -11.4808102945
 H         3.6463452771        1.0215091783      -10.0503954178
 H         3.2888051200        1.9296166628      -11.6894586610
 H         5.5817130708        2.9441295071      -15.2729776912
 H         7.0817014509        2.3297285252      -15.8442748423
 H         6.5668508394        1.7146461349      -14.2629635811
 H         6.7774351505        1.0216287237      -17.9619738452
 H         5.3998129498        2.2977146913      -17.8272676092
 H         5.0318459332        0.5220670432      -18.1568428519
 H        10.8400609950       -4.2470503057      -16.9038625833
 H         9.8529540824       -5.3394543447      -16.2967999595
 H         9.8340138571       -3.6847965721      -15.6722015078
 H         9.0021881338       -3.9240157999      -19.9023145989
 H        10.3970105910       -4.1358196936      -18.9583531278
 H         9.8050453384       -2.5015628803      -19.2841737780
 H         0.1507812682       -4.2001213976      -18.0549089657
 H         1.2326326014       -3.6478743904      -16.6444858556
 H         1.0302967804       -5.4234076572      -17.0316258021
 H         2.7429577631       -5.6389180278      -20.2618647965
 H         1.0109925534       -5.5567667969      -19.9801878677
 H         2.0830707715       -6.6868266260      -19.0845050510
 Na        3.4864961040       -2.4235644191      -15.8001427374
 Na       -6.7562490793       -1.8858047642       -8.5965000820
