232

 C         1.1021291918       -2.8236725577      -20.0126754983
 C         2.0794594902       -3.2150610185      -18.8007392586
 O         2.6809413353       -2.3116507632      -18.2049824994
 C         2.3876812116       -4.7093566186      -18.3874747765
 C         3.7320877950       -4.7035595686      -17.5117977804
 O         3.6298090562       -4.5034587891      -16.3569218967
 C         5.1100740735       -4.8941153064      -18.2447209555
 C         6.1873502952       -3.8607828289      -17.9893939696
 C         7.5183983880       -4.5118819750      -18.2841033781
 O         7.4907498864       -5.7368973826      -18.5227933378
 C         8.7827077185       -3.7149568680      -17.9874954795
 C         8.3119621806       -2.2731877900      -17.6090596660
 O         8.0196145444       -1.4470476100      -18.4721181324
 C         8.3156057928       -1.7446801624      -16.0783235172
 C         7.9319514092       -0.2261136191      -15.9681811268
 C         6.4045483562       -0.1645023844      -15.7900663043
 O         5.7178095410       -1.1548344079      -15.5077846207
 C         5.6008371644        1.1709612930      -16.2328064274
 C         4.0254056766        0.9012390871      -15.9789426970
 O         3.4358674071        0.2369500508      -16.8296538150
 C         3.2981945760        1.4767548863      -14.8095529654
 C         2.1357298139        0.6126945207      -14.3450452828
 C         2.5133906781       -0.5546126594      -13.4188401629
 O         2.8342561392       -1.6304116059      -13.8573383134
 C         2.6606599953       -0.3667004865      -11.8683653859
 C         1.3195035959        0.0508769353      -11.3048688970
 O         0.8952080516        1.2116744807      -11.5681698366
 C         0.3610886532       -0.8287572162      -10.5954287942
 C        -1.0254922584       -0.1376507891      -10.3801518365
 C        -2.0040058933       -0.4828936087      -11.4178418468
 O        -1.5775590367       -1.2616734122      -12.2207243390
 C        -3.4290563067        0.1386525494      -11.5926764626
 C        -4.3329317488       -0.9501678781      -10.8299971045
 O        -4.4600732505       -1.0014912617       -9.6194265924
 C        -4.8841813961       -1.9849776709      -11.8210870381
 C        -4.2189493411       -3.3840762975      -11.5469025681
 C        -4.7310504466       -4.1186212780      -10.3136046253
 O        -5.8990830060       -4.0629781173       -9.9058850574
 C        -3.6454555273       -5.1505321863       -9.6358184490
 C        -2.6369137565       -4.1819426880       -8.8748388567
 O        -1.8038542914       -3.5476230132       -9.5203585886
 C        -2.9243125155       -3.7783653711       -7.3695377439
 C        -1.9169254463       -2.6962485857       -6.9428106122
 C        -1.9174265293       -2.6782211978       -5.3440250965
 O        -2.0134980859       -3.6757781923       -4.7155613225
 C        -1.7020770766       -1.2079981873       -4.5453575296
 C        -2.7093519118       -0.2723723630       -5.1302904205
 O        -2.4450430211        0.2838655750       -6.1748877204
 C        -4.0676928868       -0.0757008114       -4.4584412587
 C        -4.9764082594        0.9342685499       -5.0329465045
 C        -5.8604858092        0.4508820099       -6.1401874347
 O        -5.5865947670       -0.6613900285       -6.6566959011
 C        -7.1995549290        1.2237559221       -6.6671102418
 C        -7.5514624503        1.2284437414       -8.1781943661
 O        -6.9382778889        0.4701120086       -8.8900561011
 C        -8.6101564481        2.2207912846       -8.7125013492
 C        -9.2260355522        1.5872955201       -9.9646925020
 C       -10.4607216860        0.7054672064       -9.6019197730
 O       -11.1200709386        0.9475823714       -8.5664414699
 C       -10.7041284596       -0.7765815170      -10.2904826251
 C        -9.7515461207       -1.7606869107       -9.6128111551
 O        -8.5394462620       -1.4921668386       -9.5591455114
 C       -10.1351530145       -3.0500541938       -8.9470361315
 C        -8.9340708145       -3.9995052587       -9.0103762533
 C        -8.3801990890       -4.3194859346       -7.6992965522
 O        -7.4081694798       -3.7454179216       -7.1806618374
 C        -9.0212853092       -5.5537267621       -6.8245779834
 C       -10.4745209270       -5.1659070184       -6.4968540847
 O       -11.3811660423       -5.4296815130       -7.3090039330
 C       -10.8624570409       -4.4070979875       -5.2488070699
 C       -12.3072000278       -3.9182842613       -5.1781347534
 C       -12.2328727910       -2.4298815508       -5.7337862829
 O       -11.3158140387       -2.0122349773       -6.4539803960
 C       -13.2652131991       -1.3389438226       -5.2703127817
 C       -12.8963728651       -1.0647959961       -3.7246425596
 O       -13.0290113009       -1.8782841310       -2.8723231706
 C       -12.1175884362        0.2465046583       -3.5955459574
 C       -12.2607243396        0.7039641380       -2.0578112298
 C       -11.0824963641        1.7248591227       -1.8325335575
 O       -10.7326713929        2.4136821256       -2.7640680246
 C       -10.2101358032        1.6189032180       -0.4713945698
 C        -8.8011730297        2.1990794950       -1.1466908275
 O        -8.1150930083        1.5638219199       -1.9109524854
 C        -8.3664917124        3.5341426854       -0.6244327437
 C       -10.8418701122        2.4946962455        0.5273391584
 C       -10.0358683251        0.1992346229       -0.0700336414
 C       -12.9949996701       -0.1558437853       -6.2585991426
 C       -14.7594073504       -1.7431355922       -5.3815778998
 C        -9.0015138050       -6.8009202416       -7.8286668808
 C        -8.2661395082       -5.7665978225       -5.4879686463
 C       -12.2380303097       -1.1624800937      -10.0956273952
 C       -10.3805518225       -0.8908459017      -11.7975527547
 C        -8.4774293625        0.6770801915       -6.0041982189
 C        -7.1291234789        2.6626450419       -6.1118375045
 C        -1.7586458221       -1.4793547391       -3.1083601718
 C        -0.2822172023       -0.6858846729       -4.9536571014
 C        -4.3902142031       -6.0794208712       -8.6883962702
 C        -2.9144719444       -6.0146249264      -10.6609052871
 C        -3.6695898862        1.4896556521      -10.7014410488
 C        -3.8472928707        0.3965992299      -13.0205741918
 C         3.1171730059       -1.7736840615      -11.1992710506
 C         3.7742798561        0.7103151858      -11.6301099058
 C         6.1729541026        2.3995203874      -15.4446242058
 C         6.0022161511        1.2443542839      -17.7777144688
 C         9.4541724157       -4.3280008384      -16.7344272434
 C         9.5947621641       -3.7956256902      -19.3196593392
 C         1.1961783913       -5.3716204966      -17.6707264742
 C         2.6324826267       -5.4205718620      -19.7400154738
 H         1.0526682276       -3.7060642575      -20.6697794822
 H         1.4972872284       -1.9913680320      -20.5168676977
 H         0.0498477101       -2.7247639589      -19.5424089162
 H         4.9080105103       -5.0862013603      -19.3357653632
 H         5.6352838817       -5.8330441883      -18.0534594684
 H         6.3437951564       -3.7176243548      -16.9165010436
 H         6.0046992757       -2.8848724626      -18.4416300247
 H         9.3639217749       -1.8896365240      -15.7449729241
 H         7.7878210756       -2.4468905969      -15.4636056258
 H         8.3183916527        0.2587673442      -16.8829445632
 H         8.4582606677        0.2479898166      -15.1004416313
 H         2.9900432638        2.5659616871      -15.0039079554
 H         4.0624426692        1.6994645762      -13.9786278108
 H         1.5894185226        0.2170952806      -15.1789654009
 H         1.3738827019        1.2376975640      -13.7334308535
 H         0.6861888387       -1.0246377948       -9.5299746949
 H         0.2731111232       -1.8310480155      -11.1439917388
 H        -0.9777104587        0.9448947595      -10.3965990157
 H        -1.5557323391       -0.4087130326       -9.4100033795
 H        -4.8531545641       -1.7195871362      -12.8540727539
 H        -5.9358690058       -2.0838405897      -11.5419247785
 H        -3.1830556383       -3.3310613604      -11.5409874474
 H        -4.5363650780       -3.9612564426      -12.3877565490
 H        -2.8108881497       -4.5473212615       -6.6151018437
 H        -3.9748803939       -3.5752634921       -7.3493676490
 H        -2.1492363545       -1.6793095349       -7.3194741368
 H        -0.9392769571       -3.0319728219       -7.2989369204
 H        -4.0556162449        0.0766248377       -3.4132271332
 H        -4.6032307277       -1.0509379664       -4.6194699817
 H        -4.5667590026        1.9061195646       -5.4160537326
 H        -5.7096093936        1.0801136929       -4.2882325028
 H        -8.2161987266        3.1679685633       -8.9151117360
 H        -9.4548550659        2.4894870708       -7.9977956554
 H        -8.5862094791        0.9510228954      -10.5646831611
 H        -9.4782518402        2.3117021107      -10.7177383058
 H       -11.0750368319       -3.4400286364       -9.4644396946
 H       -10.4000127492       -2.8474652791       -7.9068582076
 H        -8.2063266867       -3.6496266101       -9.7696099242
 H        -9.3732900805       -4.9607257478       -9.3621035062
 H       -10.0685204536       -3.6300096392       -5.0471857897
 H       -10.6712510439       -5.1772558854       -4.4481000700
 H       -12.6689181395       -4.0201945569       -4.1657644489
 H       -13.0274703201       -4.5749120882       -5.7845539339
 H       -12.3167836513        1.0789569411       -4.3040128173
 H       -11.0550837608       -0.0943368115       -3.7188276781
 H       -12.4564032296       -0.1222981076       -1.3956773461
 H       -13.2026950696        1.2821188945       -2.0160286529
 H        -7.3186996563        3.7093418730       -1.0064832752
 H        -8.4296557249        3.7220308400        0.4701233784
 H        -9.1183125598        4.1696504730       -1.1758350823
 H       -11.8120359086        2.0663450796        0.9182481081
 H       -11.2551141447        3.5020637859        0.0674578950
 H       -10.3318627148        2.6445353146        1.5465186550
 H        -9.4661132317       -0.4027884102       -0.6831979504
 H       -11.0509095317       -0.2182354791       -0.0677659886
 H        -9.6245721069        0.0750655684        0.9561227832
 H       -13.6248404991       -0.4658556060       -7.0563316110
 H       -11.9016166798       -0.1001887183       -6.5965592751
 H       -13.3652309734        0.8192361434       -5.9640862802
 H       -15.2885059937       -1.2162978481       -4.6487428446
 H       -14.8975996690       -2.7909135999       -5.2582664876
 H       -15.0958660081       -1.3915913070       -6.3342892447
 H        -8.0580408658       -7.4041661177       -7.6979319736
 H        -9.0772516686       -6.4962446916       -8.8785521480
 H        -9.8557319709       -7.3702195494       -7.6224584809
 H        -8.4227544858       -4.9993082568       -4.7774733648
 H        -7.2508297337       -5.8810079649       -5.7267377522
 H        -8.6099519994       -6.6913988317       -4.9548083528
 H       -12.8286551161       -0.2843076088       -9.7774425165
 H       -12.3973738710       -1.9091348764       -9.3490470164
 H       -12.6145576445       -1.5082814918      -10.9775505912
 H        -9.3653644795       -0.7522162198      -11.9792719785
 H       -10.9918730561       -0.1398698795      -12.4137741953
 H       -10.5306179118       -1.8947488535      -12.0306749508
 H        -9.2635596893        1.4401133879       -6.1736386951
 H        -8.2111087232        0.6716889356       -4.9474953986
 H        -8.6813269625       -0.2506769189       -6.4328645260
 H        -6.2829512057        3.0550511295       -6.5487037619
 H        -6.8839784394        2.6107405758       -5.0854902074
 H        -7.9288650679        3.3151469463       -6.2561893651
 H        -0.8696799452       -2.2077129822       -2.8045277549
 H        -2.7178239329       -1.8940062314       -2.8734118287
 H        -1.7171758442       -0.5770934645       -2.4515439870
 H         0.3868633298       -1.3365006536       -4.2793141720
 H        -0.1867006137        0.3832090360       -4.6696938718
 H         0.0446442705       -0.7819947042       -6.0219676397
 H        -4.0728209486       -7.1160433207       -8.8190348210
 H        -5.4692473467       -6.0305767601       -8.8626272774
 H        -4.1567442731       -5.8066749845       -7.7129045837
 H        -2.6339876773       -5.3834380798      -11.4574351399
 H        -3.4613252780       -6.8396320459      -11.1193182509
 H        -1.8769752939       -6.3298046020      -10.3630869881
 H        -3.1630348215        2.3049060235      -11.1754111724
 H        -3.2444296797        1.4447485902       -9.6932539008
 H        -4.8033721583        1.5924765040      -10.6321278593
 H        -4.9051430310        0.7276820845      -12.9588583378
 H        -3.6217972586       -0.4505809413      -13.6293172148
 H        -3.3222825417        1.2703198903      -13.3440919059
 H         2.5992055985       -2.6452719347      -11.6660102427
 H         2.9268622851       -1.8593137307      -10.1160942333
 H         4.1530049608       -2.0171632741      -11.4749243095
 H         4.7424061650        0.4192245230      -12.1729148889
 H         3.9766677962        0.6274013146      -10.5295964069
 H         3.5489208763        1.7152079448      -12.0613096546
 H         5.4261452453        3.1417753406      -15.6471203333
 H         7.1384477581        2.7446831334      -15.9725246905
 H         6.2157449511        2.3319901440      -14.4036469396
 H         6.9838560824        0.8234688949      -17.8812900387
 H         5.6944200883        2.2948361964      -18.0899021232
 H         5.3345563471        0.6185404319      -18.3957409362
 H         9.9849441542       -3.5794540870      -16.0061863092
 H        10.2947282050       -4.9578029258      -16.9261613840
 H         8.7538414208       -4.8903667566      -16.1927618124
 H         9.8182116517       -2.8534133832      -19.5825605666
 H         8.9991802067       -4.2266370595      -20.1768027212
 H        10.5637823061       -4.4057803654      -19.2292332624
 H         0.2513189677       -5.1530259664      -18.2417137451
 H         1.1246411199       -4.7619896460      -16.7301803139
 H         1.2699403024       -6.4395865631      -17.2413665104
 H         2.9992651443       -4.9043959648      -20.6084759258
 H         1.6579671794       -5.7756867540      -19.9684781247
 H         3.1840479419       -6.3180719365      -19.6431540737
 Na        3.3650119060       -1.9631687049      -15.9932859849
 Na       -6.3274538116       -1.9081496722       -8.7635846774
