232

 C         0.9062084160       -3.0625863743      -19.9180943545
 C         1.9661664717       -3.2401614705      -18.8198354769
 O         2.3927418764       -2.2270326369      -18.2953128338
 C         2.3450616726       -4.6702258316      -18.4178392012
 C         3.6121373998       -4.5735792067      -17.6121519084
 O         3.6586816342       -4.2368272398      -16.4100762825
 C         5.0127910559       -4.9522006416      -18.1732016399
 C         6.0598026594       -3.8243680634      -17.9853444081
 C         7.5548460280       -4.4860170065      -18.0958237447
 O         7.6391897174       -5.6177450408      -18.5812900002
 C         8.8181288284       -3.6132971643      -17.9127899306
 C         8.4713389988       -2.1672737486      -17.6927156930
 O         7.9853926418       -1.4819053631      -18.5850265367
 C         8.4494407658       -1.7061020458      -16.2277731802
 C         7.8287779747       -0.3250951284      -16.0192816697
 C         6.3369537352       -0.1815361553      -15.8516578609
 O         5.6584706282       -1.0800653503      -15.4042949272
 C         5.6710933277        1.1698777752      -16.3876716830
 C         4.1088857516        0.9130569458      -16.1402633490
 O         3.5629823151        0.2490421969      -16.9802208292
 C         3.3308378948        1.3907155320      -14.8639571649
 C         2.1236380129        0.6148214926      -14.4133671110
 C         2.5828079347       -0.6570972470      -13.4274890530
 O         2.8444608601       -1.7005823344      -13.9476229204
 C         2.6602196065       -0.4266186155      -11.9436795820
 C         1.2793885171        0.1506266279      -11.4293435632
 O         1.0008197636        1.3349435762      -11.6709414130
 C         0.4187776420       -0.7549504563      -10.3879513239
 C        -0.9034084939       -0.0003614121      -10.1812287869
 C        -1.8705828587       -0.4343056522      -11.4647843795
 O        -1.6029892760       -1.2971849072      -12.2612800165
 C        -3.4197501780        0.1693918265      -11.5145573135
 C        -4.3812701241       -0.9784158201      -10.9247790815
 O        -4.6835422827       -0.9825132493       -9.7190011354
 C        -4.9578832902       -2.0853555601      -11.8403674048
 C        -4.2083353201       -3.3946432397      -11.4909196477
 C        -4.7132147245       -4.1838000933      -10.3160340205
 O        -5.8621822326       -4.0559976461       -9.9241081465
 C        -3.6913543878       -5.0881404372       -9.6338003114
 C        -2.8168009881       -4.0394105675       -8.8258288000
 O        -1.8249112865       -3.5480334533       -9.3770872063
 C        -3.0145012355       -3.7654997035       -7.3303776969
 C        -1.9794615417       -2.7522864202       -6.8958309602
 C        -1.9174419942       -2.5939173847       -5.3604887946
 O        -2.1033173219       -3.6198145360       -4.7204650467
 C        -1.5801909362       -1.3266782155       -4.6017526042
 C        -2.6945005181       -0.2565686365       -5.1931511709
 O        -2.5229554020        0.4086011502       -6.1956426477
 C        -4.0494175160       -0.1924767941       -4.3847562626
 C        -4.9831639445        0.9607997877       -4.8740002134
 C        -5.9387402072        0.4264474850       -6.0793779421
 O        -5.6062967596       -0.5948327885       -6.6554834973
 C        -7.2586679921        1.2839348568       -6.4603978236
 C        -7.5530656131        1.2527246610       -8.0476116072
 O        -7.1273914718        0.3951088825       -8.7569278292
 C        -8.6623224147        2.1797919160       -8.6524973048
 C        -9.2773213295        1.5872225749       -9.9439173705
 C       -10.4128667152        0.5617181570       -9.5747198792
 O       -11.0882912954        0.8286618656       -8.6114524834
 C       -10.6442340190       -0.8104060373      -10.3390909090
 C        -9.6572095980       -1.7200944222       -9.5712911837
 O        -8.5450447955       -1.3617500214       -9.5510781633
 C       -10.0506972974       -3.0765303712       -8.7544967755
 C        -8.8827800145       -4.0923116030       -8.9858346496
 C        -8.2783053897       -4.4439598726       -7.6583946041
 O        -7.3356103776       -3.8056920411       -7.1763123743
 C        -8.9752869386       -5.5484775575       -6.8256926004
 C       -10.5125668980       -5.0920830290       -6.6098487297
 O       -11.3659633822       -5.3087941545       -7.4526636957
 C       -10.6724085250       -4.3460815745       -5.2213630656
 C       -12.1212589027       -3.8060034285       -5.1806855114
 C       -12.2154970751       -2.4392946948       -5.7381324859
 O       -11.2809999753       -2.0984590459       -6.4673388443
 C       -13.2799318196       -1.3579422460       -5.3817346134
 C       -12.7706060489       -1.0514956512       -3.8166360217
 O       -13.0677258268       -1.9121644217       -2.9714213497
 C       -12.1574952965        0.2489422738       -3.4870335273
 C       -12.2145020658        0.6536313144       -1.9518475902
 C       -11.0201552268        1.5895973768       -1.8466083585
 O       -10.7148732922        2.3309021477       -2.7875139598
 C       -10.2469454952        1.6035404037       -0.5379960246
 C        -8.8054529207        2.2148269192       -1.1423064996
 O        -8.2589376503        1.4610658500       -1.9464809592
 C        -8.3225695346        3.6342684189       -0.7696400485
 C       -10.9075867326        2.4979589739        0.4533274529
 C       -10.0092471073        0.1554085803       -0.1281412086
 C       -13.0173066464       -0.0302171490       -6.2132918581
 C       -14.7751906859       -1.6303546835       -5.3637000970
 C        -8.9504594147       -6.9040732077       -7.5798729992
 C        -8.1855203439       -5.7392868235       -5.5510851897
 C       -12.1872243993       -1.1978651794      -10.0976626356
 C       -10.2903499358       -0.8034623724      -11.8424066398
 C        -8.6139257684        0.5153496184       -5.8319768542
 C        -7.2369177422        2.8003173660       -6.0135422579
 C        -1.5933656596       -1.6897135810       -3.1184723348
 C        -0.1018414802       -0.8668211499       -5.0655257700
 C        -4.4345727209       -6.1508432979       -8.7416824224
 C        -2.8150261239       -5.7419199170      -10.7552422154
 C        -3.6547819825        1.5097942185      -10.6602967860
 C        -3.8106196272        0.5201939129      -12.9294296488
 C         2.8800012365       -1.7397550421      -11.2407914578
 C         3.8016396503        0.5848723444      -11.6444940873
 C         6.2457747770        2.3738442274      -15.5226423063
 C         5.8841183506        1.2517729774      -17.8423378168
 C         9.5780280030       -4.3525929627      -16.7082959444
 C         9.6063830802       -3.7776239624      -19.2681657785
 C         1.3007556327       -5.3836455406      -17.6302193643
 C         2.6014767291       -5.4807462683      -19.8881146120
 H         0.4571394630       -4.0179908750      -20.1648058275
 H         1.5002950750       -2.6437542152      -20.7268433972
 H         0.1592635338       -2.3957261411      -19.5436698694
 H         4.9733859778       -5.3025660505      -19.2376344441
 H         5.3861042813       -5.8613915272      -17.6808368387
 H         5.8516616187       -3.1314791026      -17.1940015378
 H         6.0181356124       -3.2211793268      -18.9354257107
 H         9.3890020010       -1.9140233230      -15.7521542094
 H         7.7973962736       -2.4836212920      -15.7384647890
 H         8.2110063682        0.3861178771      -16.8068116079
 H         8.2228987673        0.0265087766      -15.0723680159
 H         3.1163617446        2.4648605612      -15.0693943834
 H         4.0361910616        1.5571878522      -13.9971262580
 H         1.5945629406        0.1733640690      -15.3092027101
 H         1.4263164187        1.1795136103      -13.8909536743
 H         0.9255774590       -0.9525001797       -9.4086449656
 H         0.0791233652       -1.7411209606      -10.8040194729
 H        -0.8361311562        1.0745449316      -10.1269978445
 H        -1.5241347800       -0.2864551298       -9.3525517572
 H        -4.8451954053       -1.8495542315      -12.9293953369
 H        -5.9976017901       -2.2261571027      -11.6206012774
 H        -3.1679513482       -3.1887745726      -11.2750621896
 H        -4.2403850314       -3.9471528292      -12.3667067155
 H        -3.0901985300       -4.6169932505       -6.7211566885
 H        -4.0460275968       -3.3477170459       -7.2898855470
 H        -2.2159391723       -1.8088208450       -7.4665024111
 H        -1.0090329348       -3.1158701538       -7.1936481440
 H        -3.7959030959        0.1295111735       -3.3884923909
 H        -4.4987578218       -1.1915461665       -4.2953979477
 H        -4.3309760354        1.6077146165       -5.5104646725
 H        -5.4922103019        1.5019599844       -4.0961290979
 H        -8.1843952546        3.1810375314       -8.9698463993
 H        -9.4711396763        2.5099765410       -7.9892583982
 H        -8.5709750978        1.2122833597      -10.7354733090
 H        -9.7621211313        2.3514299145      -10.5433647148
 H       -11.0065533890       -3.4609887136       -9.0082043271
 H       -10.0670673080       -2.8198219861       -7.7012919327
 H        -8.1992006887       -3.5725894961       -9.5663575977
 H        -9.2110033230       -4.9549941064       -9.5064543113
 H        -9.8532181927       -3.6304320175       -5.0760683604
 H       -10.4762468355       -5.1228952939       -4.4581998629
 H       -12.4967724029       -3.7843060757       -4.1391778782
 H       -12.8530444844       -4.4988547918       -5.6870575040
 H       -12.7229822152        1.0127505532       -4.0392689884
 H       -11.1143150119        0.2931258584       -3.8015090678
 H       -12.2362291281       -0.1674329898       -1.2682989600
 H       -13.1488401798        1.1804475743       -1.7767946649
 H        -7.4268300675        3.9126898670       -1.4036186330
 H        -7.9654797186        3.5607496230        0.2934072404
 H        -9.1409981746        4.3187219015       -0.8319650902
 H       -11.9742515658        2.2034402055        0.8157374761
 H       -11.1132422376        3.5604338239        0.1501040381
 H       -10.3761474691        2.4052417590        1.4346454361
 H        -9.8788115953       -0.5209436330       -1.0305795607
 H       -10.8994892052       -0.2213977048        0.3701515353
 H        -9.1394052398       -0.0385013766        0.5071349790
 H       -13.4743455348       -0.2674307652       -7.2293068938
 H       -11.9681769427        0.1096919605       -6.2563573880
 H       -13.6028665430        0.8143109715       -5.9034514632
 H       -15.2811662923       -0.9147178615       -4.5766241935
 H       -14.9850709212       -2.7495251323       -5.1825666897
 H       -15.1289171819       -1.3276837229       -6.3642274727
 H        -7.9353081695       -7.2899816326       -7.8096000931
 H        -9.5735786561       -6.9132824189       -8.4365876113
 H        -9.3694316073       -7.5015217148       -6.7688064101
 H        -8.3127146290       -4.9088363296       -4.8541184718
 H        -7.1825000854       -5.8381725682       -5.8518507492
 H        -8.5233799214       -6.5989180068       -5.0107515204
 H       -12.8636417733       -0.3885044778       -9.9236841178
 H       -12.2578731574       -1.8413893599       -9.2083586760
 H       -12.5140116522       -1.8015192879      -10.9636083100
 H        -9.3673300479       -0.2923782320      -12.0505356765
 H       -11.0346677213       -0.3658220116      -12.4002555954
 H       -10.0722888645       -1.8644783262      -12.0766979986
 H        -9.4918769925        1.1952721190       -6.0012328983
 H        -8.4344984607        0.3504178617       -4.7223811405
 H        -8.6247469411       -0.3703666917       -6.4757144749
 H        -6.2183280664        3.1019083697       -6.0195503119
 H        -7.5180095332        2.9974575186       -5.0105506254
 H        -7.7925111791        3.4366008099       -6.6247409589
 H        -0.7161214671       -2.2591172239       -2.8600412178
 H        -2.5885599489       -2.2485936142       -2.9040321871
 H        -1.6516732935       -0.8871385464       -2.4931195323
 H         0.5880343593       -0.9776982105       -4.2577406291
 H        -0.3515773629        0.2503151231       -5.2022182562
 H         0.3306969056       -1.2266453517       -6.0007622024
 H        -3.9668173986       -7.1326310333       -8.9997508985
 H        -5.5401526768       -6.2029706075       -8.9241168213
 H        -4.2750081879       -5.9935247890       -7.6658279050
 H        -2.3796465709       -5.0124425497      -11.4623854485
 H        -3.3302505465       -6.4444760334      -11.3021173462
 H        -1.9353237276       -6.1895142152      -10.3827313421
 H        -2.8792687768        2.2444454938      -11.0245790616
 H        -3.6084601615        1.4679147009       -9.6117955060
 H        -4.6436952734        1.7998343172      -10.9722507227
 H        -4.8557485312        0.7437358757      -13.0441178109
 H        -3.3613404534       -0.3566485094      -13.5379151421
 H        -3.2452821696        1.4089123011      -13.1564233982
 H         2.1060454056       -2.5350672380      -11.4056888934
 H         2.8886318408       -1.5326199973      -10.1283191978
 H         3.7883876721       -2.2263895588      -11.6048354060
 H         4.7278965961        0.4010820241      -12.2471350205
 H         4.0507060519        0.5600220184      -10.5564268004
 H         3.4211599969        1.5969111149      -12.0035626358
 H         5.5269370623        3.2171145376      -15.5971242944
 H         7.2442430327        2.7015976115      -15.8565635490
 H         6.2108380949        2.0746079197      -14.4828254377
 H         6.8637775429        0.9057310324      -18.0125979660
 H         5.5915007240        2.3145339744      -18.0555636722
 H         5.1915216007        0.6569890023      -18.4789574761
 H        10.4764418899       -3.9368435961      -16.2675113333
 H         9.9527324362       -5.2612960091      -17.2537213920
 H         8.9562428972       -4.8096344254      -15.9041438395
 H        10.1989711674       -2.8268122488      -19.3228093165
 H         8.9479661303       -3.7795288809      -20.1206755235
 H        10.2251275809       -4.6489190129      -19.3219972109
 H         0.3471115995       -5.2825496671      -18.3008032528
 H         1.0810448147       -4.9402285245      -16.6168577890
 H         1.5378237840       -6.4161291341      -17.4008663515
 H         3.0677973733       -4.8722097898      -20.7179816531
 H         1.7221260661       -5.9868673906      -20.3244414939
 H         3.2690311885       -6.3499094971      -19.6957945415
 Na        3.4299941624       -1.9918087820      -15.9200986627
 Na       -6.5055484595       -2.0801196795       -8.5077411531
