232

 C       -17.1228166379       -5.6130348400       -4.3565550960
 C       -17.7019697653       -6.6466765728       -3.3803137476
 O       -17.0576634660       -7.5727549249       -3.0120686504
 C       -19.2979863841       -6.5614609895       -3.0010049777
 C       -19.4078799485       -6.8268317709       -1.4329355113
 O       -19.4399093649       -7.9803514121       -1.1357185380
 C       -19.2991113931       -5.6786176113       -0.4189457308
 C       -18.3137987171       -6.0733480972        0.6941591087
 C       -16.8717512406       -6.2472930160        0.1046162480
 O       -16.6606720599       -5.7053085187       -0.9771775470
 C       -15.7282225941       -6.9239466145        0.9646231319
 C       -15.6064041347       -8.2766838932        0.2403096374
 O       -16.5458411479       -9.0332413218        0.3361602926
 C       -14.5370776708       -8.5984151479       -0.7522579969
 C       -14.2282852018      -10.0381804948       -0.8015055654
 C       -14.4695605672      -10.5619629065       -2.2557272272
 O       -15.6449064737      -10.5774884107       -2.6167660118
 C       -13.2783219210      -10.7830312669       -3.1958432169
 C       -12.8751106998       -9.4562640668       -3.7656447392
 O       -13.4151582061       -8.4102683037       -3.4850472858
 C       -11.7641585616       -9.4334105179       -4.7579583508
 C       -12.1671758156       -9.3347554356       -6.2322856038
 C       -10.9292232669       -9.0204107081       -7.0972092009
 O        -9.9489255780       -9.6866311809       -6.9970202674
 C       -10.9500122391       -7.8138459036       -8.2234014198
 C       -10.7844688424       -6.4093918229       -7.5602313741
 O       -10.6119162905       -6.2981173877       -6.3642177905
 C       -10.9133140120       -5.2639962567       -8.5242351527
 C        -9.7064495157       -4.2713824620       -8.5923528532
 C        -9.9264422733       -3.1966060563       -9.6720795017
 O       -10.8417820083       -3.1476479494      -10.4242915170
 C        -8.6580399361       -2.1421096335       -9.8329965279
 C        -7.5010616220       -2.7044385006      -10.7358438206
 O        -7.2908078303       -3.8869335534      -10.7487119063
 C        -6.7772299785       -1.6391156402      -11.5213582588
 C        -5.6271505001       -2.2354485346      -12.3560445577
 C        -4.6904753624       -1.0998168390      -13.0539768902
 O        -5.0383013221        0.0541641511      -13.0131707608
 C        -3.5360355472       -1.6032136642      -13.9214758416
 C        -2.4594971155       -1.8644812469      -12.8735924072
 O        -2.3330282775       -1.0449435474      -11.9889517152
 C        -1.3487122210       -3.0177262878      -13.1338180649
 C        -0.3679235222       -2.9032739595      -11.9969559614
 C         0.8075032626       -1.8411765648      -11.9074961615
 O         1.5111772282       -1.4543105791      -12.7899989330
 C         1.1320004256       -1.4692508757      -10.3528937826
 C         2.3238567136       -0.3807365411      -10.4960739830
 O         3.4007407634       -0.8213754387      -10.7691608965
 C         2.0212869252        1.1398348554      -10.2068174265
 C         3.3237311676        1.7925054408       -9.7934485850
 C         3.2965397156        3.2658328945       -9.4267619011
 O         2.2246408424        3.7248388337       -9.0547098673
 C         4.5497830799        4.2962532589       -9.6772877675
 C         4.5389100048        4.5317064182      -11.2063969848
 O         5.3134239568        3.8146561972      -11.8724631255
 C         3.5015804344        5.3982493975      -11.8886131359
 C         3.9900995181        6.8623220369      -12.1735331116
 C         4.7106492697        6.6634520309      -13.5153949678
 O         4.5779224173        5.7678775396      -14.3270373536
 C         5.5369428554        8.1060476173      -13.8662645824
 C         6.9079056313        7.7107074883      -14.5662817130
 O         7.3652041048        8.2397094076      -15.6000090549
 C         7.8696790363        6.7742699748      -13.8550753517
 C         8.8538274414        6.0207062696      -14.7382038841
 C         8.1921545178        5.4200834585      -16.0820242231
 O         7.3144869885        4.6263791025      -16.0562484599
 C         8.7346450643        5.9279692199      -17.5397502091
 C         9.7740873884        4.7977835736      -17.8649911688
 O        10.2458332390        4.1853562951      -16.9255109604
 C        10.2594794364        4.5278210782      -19.3550154712
 C        10.4282177826        3.0235546094      -19.5918970738
 C         9.1095375787        2.2759030785      -19.5625635231
 O         8.0847146441        2.9185928904      -19.2866896397
 C         8.8659464429        0.6275345058      -19.7356050327
 C         8.8906736902        0.0927684505      -18.3031300672
 O         9.5752539155       -0.8132073033      -17.9647134903
 C         7.9261447169        0.7253580312      -17.1742282376
 C         8.3382069788        0.3024083169      -15.7030541995
 C         7.3725423255        1.0166441002      -14.6684762966
 O         7.4497710958        2.1769534766      -14.4194180791
 C         6.1764624248        0.2601777697      -14.1271350897
 C         4.7695745855        0.8369763542      -14.7816991858
 O         4.6776396696        2.0234261637      -15.0437514651
 C         3.5221735840       -0.0539813459      -14.8769176182
 C         6.3295857747       -1.2682176661      -14.4344329775
 C         6.0091802645        0.4582564120      -12.6407375901
 C         7.4127534364        0.3860716966      -20.5487088354
 C         9.9412899741        0.0242270036      -20.6941724136
 C         7.5034132638        5.9311608179      -18.4732189504
 C         9.4610875557        7.2717691552      -17.6001290205
 C         4.5973026184        8.9684610411      -14.7578931226
 C         5.8017715200        8.9704403282      -12.6009929811
 C         4.2107640527        5.6440443310       -8.9573218510
 C         5.8075825526        3.7249980505       -9.1438240679
 C        -0.0668732994       -0.8680416987       -9.6852705460
 C         1.5953548828       -2.7577796720       -9.7204896868
 C        -3.9618308467       -2.7155212132      -14.8297143927
 C        -3.0316678034       -0.3545127313      -14.8858527998
 C        -9.2230718164       -0.8892271094      -10.3798881284
 C        -7.9056818134       -1.7931853810       -8.4966837336
 C        -9.9803739744       -7.9818507868       -9.3757659650
 C       -12.3950960828       -7.9946529537       -8.6848097565
 C       -12.1128303086      -11.5161517117       -2.4267053548
 C       -13.8492290263      -11.6498081854       -4.3897546132
 C       -14.4066625657       -5.9958328823        0.8136948785
 C       -16.0426704722       -6.9698473877        2.4771183423
 C       -19.9265314618       -5.2062809214       -3.3285201766
 C       -20.1609900766       -7.7083161476       -3.7056135147
 H       -17.1111111129       -4.5762048446       -3.9229001509
 H       -17.7585626022       -5.5598337493       -5.1897216095
 H       -16.1946093077       -6.0089196305       -4.6634492395
 H       -20.2462190432       -5.3743513990        0.0579724162
 H       -18.8121270959       -4.8239127991       -0.8735380954
 H       -18.6137892361       -6.9619136607        1.2379475144
 H       -18.1654164580       -5.2591843699        1.4321687023
 H       -13.5915093109       -8.0540649185       -0.5580414314
 H       -14.9588912708       -8.2668479092       -1.6928773349
 H       -14.8492679817      -10.7205365924       -0.1898683554
 H       -13.1573788756      -10.2923345438       -0.3949674208
 H       -11.0016243518      -10.2790604637       -4.6727399596
 H       -11.2244904284       -8.5144211736       -4.4831445907
 H       -12.9552012720       -8.6108208430       -6.3663577891
 H       -12.5719481748      -10.2753313549       -6.6733480178
 H       -11.7583061321       -4.6378931400       -8.2570468350
 H       -10.9924434461       -5.7539007505       -9.4943948813
 H        -8.7657221642       -4.7843963169       -8.9756434123
 H        -9.5860035333       -3.8092532908       -7.6451173313
 H        -6.3854684229       -0.8976319311      -10.7321846364
 H        -7.4682936678       -1.2044303793      -12.2170996729
 H        -6.1099397394       -2.9286576763      -13.1007258897
 H        -4.9264058018       -2.6841691175      -11.7562482715
 H        -0.8948627852       -3.0915098003      -14.1308406879
 H        -1.9497882324       -3.9546793762      -13.0723191138
 H         0.3282000867       -3.7873985601      -11.9849052716
 H        -0.8446399315       -2.9954315268      -11.0084660422
 H         1.3401277044        1.1398295024       -9.4073236564
 H         1.5517911004        1.6984697930      -11.0399323720
 H         4.0206379449        1.7706679335      -10.6898784736
 H         3.6541305033        1.1357136453       -8.9361366974
 H         2.6562485543        5.6113631367      -11.3858892259
 H         3.0782552959        5.0767330092      -12.8200305620
 H         4.7204628028        7.2741547930      -11.4458505744
 H         3.1799219990        7.5933669421      -12.4370509345
 H         7.3502867708        6.0371952057      -13.2668870997
 H         8.3765965039        7.4953953862      -13.1886704839
 H         9.1880342759        5.1072892947      -14.1446882854
 H         9.7023189271        6.5267776033      -14.8728754426
 H        11.2908520667        4.9813171778      -19.5105291353
 H         9.6621565776        5.0353861969      -20.1271718864
 H        11.0356775945        2.5876698579      -18.7125147710
 H        10.9526799219        2.9292727779      -20.4959260178
 H         6.9039850572        0.3780516298      -17.4372321869
 H         7.8309030378        1.7822717220      -17.2261922987
 H         9.3574911425        0.5620954649      -15.6567974759
 H         8.3156008761       -0.7439535169      -15.6035559432
 H         3.4301934036       -0.7420008807      -15.7900134851
 H         2.7062633828        0.5570178957      -14.5909366422
 H         3.6964420997       -0.7232699454      -14.0615375691
 H         5.5752750011       -1.9173640323      -13.9579941975
 H         7.2901474456       -1.4922588744      -13.9803260414
 H         6.2315016700       -1.4058931088      -15.5461213384
 H         5.1272566381        0.0296969685      -12.1345358075
 H         5.7455814910        1.5143206285      -12.4609723231
 H         6.8624971697        0.1593636894      -11.9723949216
 H         6.9647901137       -0.5582003391      -20.3353596183
 H         7.4800976398        0.4071050451      -21.6035135391
 H         6.7368742736        1.1530577402      -20.3546545306
 H         9.3467178780       -0.2296316248      -21.5605106325
 H        10.4776244967       -0.8337387126      -20.2960953340
 H        10.6889439388        0.7691059484      -20.9839418428
 H         6.6994940437        6.4314055240      -18.0907483058
 H         7.1237458282        4.9349571591      -18.6824270459
 H         7.7950909937        6.4025054451      -19.4200257549
 H        10.2475727721        7.3579857211      -16.7485693656
 H         8.7924212666        8.0736671537      -17.5003809960
 H        10.1393449247        7.3697343044      -18.5350957369
 H         5.0735588191        9.7993348602      -15.2300886633
 H         3.6564939379        9.1629125229      -14.2733252863
 H         4.3541489743        8.3121554791      -15.6010446260
 H         6.3526430582        9.8548305584      -12.9478827902
 H         6.4845502371        8.4984965465      -11.9060951541
 H         4.9139015960        9.2092768621      -12.0595119969
 H         4.3415286664        5.4551801087       -7.9495079542
 H         3.1122346659        5.7658644487       -8.9790564204
 H         4.7429535432        6.3889578311       -9.5495955925
 H         6.5403523451        4.3970505003       -8.7914777538
 H         6.3797570546        3.2184913616       -9.9164647137
 H         5.6008758951        2.9985712095       -8.3918351716
 H        -0.3838035754        0.0377517736      -10.2985106442
 H         0.1450919545       -0.5467376861       -8.6304818467
 H        -0.9103768330       -1.5326746514       -9.4433828678
 H         0.7599515871       -3.4010015280       -9.5351217298
 H         1.9872499072       -2.5183666212       -8.7773331216
 H         2.3219937412       -3.3614265614      -10.2866674776
 H        -4.1499361317       -3.7191468461      -14.4503927122
 H        -3.1994245723       -2.8126450930      -15.6020232303
 H        -4.8968650776       -2.3924025902      -15.3347741551
 H        -2.6032719226       -0.7804782314      -15.8405519339
 H        -2.3807630185        0.3590790017      -14.3975116593
 H        -3.9401075486        0.2564234523      -15.1333607482
 H       -10.1120959401       -0.7043577286       -9.7895045073
 H        -9.4079045637       -1.1833682175      -11.3306556201
 H        -8.6139322792        0.0011460786      -10.2377429304
 H        -8.5392817667       -1.5819518956       -7.6667858525
 H        -7.2602008631       -0.9207287041       -8.6170342805
 H        -7.2902152909       -2.6762268934       -8.2880979143
 H        -9.2922141731       -8.8437157364       -9.2273251503
 H        -9.3601183181       -7.1031550627       -9.5890675408
 H       -10.5305726421       -8.1678250780      -10.3642190332
 H       -12.6317935186       -9.1046452135       -8.7249478275
 H       -12.5232155471       -7.8001930390       -9.7603767555
 H       -13.1533089358       -7.5399606880       -8.1047742270
 H       -11.8910667218      -10.9171501945       -1.5845804863
 H       -11.3083155160      -11.5540235446       -3.1574575628
 H       -12.4348107955      -12.5491297155       -2.1701698263
 H       -14.7863772261      -11.3388999345       -4.6783340044
 H       -13.7160221772      -12.6947928768       -4.2012431029
 H       -13.0994791881      -11.3996931722       -5.1776328902
 H       -14.2279193051       -5.6754018381       -0.2429794556
 H       -13.6645319857       -6.5161663802        1.3367208456
 H       -14.5921156924       -5.1444088629        1.4288382195
 H       -16.9244350502       -7.4312541566        2.6312195517
 H       -16.1107629837       -5.9078046822        2.8116532498
 H       -15.2169811493       -7.4294146876        2.9732976933
 H       -19.3949516103       -4.3260709608       -2.8532123397
 H       -20.9736709180       -5.1406175574       -3.1645621085
 H       -19.8465872793       -5.0385960547       -4.3086964086
 H       -21.1413911190       -7.5412180781       -3.3927783996
 H       -19.8459427289       -8.7389225633       -3.4642723478
 H       -20.1887169102       -7.7526381838       -4.7996503365
 Na      -17.7378353400       -9.4721133116       -1.7276563713
 Na        6.0304102043        3.9021996480      -14.1844530682
