232

 C         0.4988020901       -3.2604445040      -19.8340816092
 C         1.5898203126       -3.2701159817      -18.8008337099
 O         1.8654617369       -2.2584162899      -18.1854569258
 C         2.3980431685       -4.6918838234      -18.6176161091
 C         3.6761635735       -4.5205371245      -17.7694984396
 O         3.5696498823       -3.9781895160      -16.7090272604
 C         5.0849165391       -4.9830316468      -18.0986670157
 C         6.2240870605       -3.9394286835      -18.0582702701
 C         7.5407493530       -4.5583498922      -18.2263259730
 O         7.7067204898       -5.7519667582      -18.5344217515
 C         8.9027210836       -3.6358548869      -18.0010306930
 C         8.4516186689       -2.1225082583      -17.6327500066
 O         8.0415341132       -1.3797880822      -18.5203278571
 C         8.5107891214       -1.5668842307      -16.1507861953
 C         7.8977309161       -0.1990129220      -15.9551379875
 C         6.3450780611       -0.2024128215      -16.0202789457
 O         5.7435303540       -1.1351927383      -15.4929001195
 C         5.6591897169        1.0194325926      -16.5139581253
 C         4.0718837680        0.8199452935      -16.2836525166
 O         3.3834049026        0.1607390898      -17.0527025380
 C         3.5002701371        1.3788492529      -14.9377254184
 C         2.3160062784        0.4952978847      -14.4567522134
 C         2.5876227797       -0.6273387096      -13.5014383770
 O         2.7111543127       -1.7925881316      -13.9511255372
 C         2.5965538698       -0.4585149955      -11.9738079691
 C         1.1369718056        0.2986311304      -11.5015656687
 O         1.0797673710        1.4448239603      -11.9108081334
 C         0.3552506443       -0.2896417570      -10.2475307129
 C        -1.1196159465        0.0930939004      -10.1307166073
 C        -1.9526215203       -0.4136260236      -11.3866767660
 O        -1.5505364193       -1.1938452911      -12.2271877445
 C        -3.5043330767        0.1944667387      -11.3672046705
 C        -4.5469610207       -0.8637415114      -10.8865026972
 O        -4.9633469308       -0.8749412848       -9.7642037771
 C        -4.9803613524       -1.9825356404      -11.9095771162
 C        -4.2124173613       -3.2973749958      -11.6231471696
 C        -4.6600817817       -4.0857411992      -10.3670018036
 O        -5.8017989631       -3.8973176483       -9.9441780331
 C        -3.6115714881       -5.1613257926       -9.7274099723
 C        -2.7489673500       -4.0680866800       -8.8339996748
 O        -1.8841392748       -3.4353987160       -9.3928259898
 C        -3.1978368761       -3.6506029475       -7.3728229864
 C        -2.1493443760       -2.6946139777       -6.8449036978
 C        -2.1131268880       -2.7299858544       -5.3374132230
 O        -2.3322396624       -3.7245881245       -4.7239333051
 C        -1.5622069796       -1.3905897756       -4.6834862737
 C        -2.7307908430       -0.2899262716       -5.1476267106
 O        -2.3724550973        0.4317758196       -6.0434712877
 C        -4.0885280045       -0.1695969936       -4.3367149763
 C        -5.0046741069        0.8654389690       -4.8907393830
 C        -5.9697571585        0.4077502034       -5.9390758081
 O        -5.8678097191       -0.6590740723       -6.5219166047
 C        -7.4020146597        1.2375626763       -6.2995794700
 C        -7.6347705263        1.2184592363       -7.8301652219
 O        -7.0122152757        0.4514748315       -8.5316418532
 C        -8.6550547624        2.1108774745       -8.5045783714
 C        -9.2805799171        1.4557461728       -9.7028011597
 C       -10.4910816236        0.5664643847       -9.4206200729
 O       -11.2576092675        0.7412950318       -8.4555183181
 C       -10.5567698493       -0.7420301562      -10.2808266252
 C        -9.3813640722       -1.8398521205       -9.7469866123
 O        -8.1819145933       -1.4583262857       -9.8336897458
 C        -9.8253160418       -3.1306295192       -8.9850600290
 C        -8.8443920348       -4.3068544265       -9.0099526868
 C        -8.2873843428       -4.6210941392       -7.6658746026
 O        -7.3117665169       -4.0198311625       -7.2639317997
 C        -8.8920323474       -5.6872082101       -6.6813297108
 C       -10.3359304621       -5.1398951825       -6.4737943351
 O       -11.0285746856       -5.1385767932       -7.5019643440
 C       -10.7904505897       -4.3731486021       -5.1355357261
 C       -12.1178826883       -3.6636314881       -5.1498971842
 C       -12.1598275521       -2.2460735694       -5.8006628934
 O       -11.2263054369       -1.8578767237       -6.4902193292
 C       -13.2612263918       -1.2736680636       -5.3883725306
 C       -12.9704764607       -1.0540285949       -3.8458390127
 O       -13.1170522268       -1.9126406551       -3.0592048237
 C       -12.4963193452        0.3674092380       -3.4800824281
 C       -12.1337332833        0.5069201511       -2.0466568235
 C       -11.0385903249        1.5575776592       -1.8847700117
 O       -10.8918792917        2.3951353024       -2.7452832731
 C       -10.1249324557        1.6038379237       -0.6357252218
 C        -8.7346207875        2.1595602301       -1.2645212574
 O        -8.0518862468        1.3749587455       -1.8593852348
 C        -8.2905985541        3.6169127662       -0.8881677784
 C       -10.7805983330        2.4485867106        0.5101399272
 C        -9.8133166664        0.2430036521        0.0375374657
 C       -13.1293750255       -0.0249886097       -6.2907831155
 C       -14.7406010772       -1.9211986970       -5.4660781389
 C        -8.9964846424       -7.1049659981       -7.3719860261
 C        -8.0244744519       -5.7046090924       -5.3962331388
 C       -11.9938113174       -1.3593265884      -10.1595475698
 C       -10.2226050463       -0.6068606627      -11.8143361018
 C        -8.4399421417        0.4091688525       -5.4881098223
 C        -7.3906406545        2.6689603448       -5.7042536646
 C        -1.4414631804       -1.4566073950       -3.1013097680
 C        -0.2503474396       -0.9581723876       -5.3393366094
 C        -4.3954375746       -6.1816248041       -8.9000017042
 C        -2.6146611930       -5.7573866680      -10.6747712424
 C        -3.6198042803        1.4289094500      -10.3828965660
 C        -3.5868122332        0.5536932410      -12.9398463143
 C         2.8453825385       -1.9263502532      -11.3382577816
 C         3.8122000506        0.4510927265      -11.5492653159
 C         6.2301234294        2.2022996950      -15.7273643773
 C         5.8621840952        1.4788641409      -18.1130092479
 C         9.6658285616       -4.2572616952      -16.8309803435
 C         9.7856984647       -3.5893843689      -19.2760032270
 C         1.3182658627       -5.4193907963      -17.6114485312
 C         2.5744822733       -5.5153241371      -19.8182234534
 H        -0.4145949961       -3.3668081333      -19.2555200322
 H         0.6712188299       -3.9317244900      -20.6359465781
 H         0.5337840619       -2.1868032763      -20.2461080065
 H         5.0526885449       -5.5813481302      -19.0061233901
 H         5.1284483910       -5.7531603733      -17.2793458897
 H         6.2103717030       -3.4306434782      -17.0450099849
 H         6.1163165084       -3.0882230855      -18.7220516514
 H         9.6151294485       -1.6713193021      -16.0147833723
 H         8.1158013654       -2.1992009060      -15.3787465534
 H         8.2194612957        0.3783611108      -16.7822216696
 H         8.2807349190        0.2355152083      -15.0130140582
 H         3.2489367463        2.4139650494      -15.0468148252
 H         4.3331692796        1.3666866358      -14.2896224966
 H         1.9081370152        0.0510998774      -15.3298487664
 H         1.4934488668        1.0220596673      -13.8291736055
 H         0.8893157874       -0.0130390177       -9.3717700091
 H         0.4100694097       -1.3640589535      -10.2623168024
 H        -1.2692573100        1.1749530129      -10.1028837960
 H        -1.6863278468       -0.2252827621       -9.2387396039
 H        -4.6953900913       -1.6563891364      -12.8930754276
 H        -6.1022391786       -2.1875620418      -11.8503742919
 H        -3.1009278806       -3.1274563932      -11.6197847524
 H        -4.4266941908       -3.9972752081      -12.5418401272
 H        -3.4192917077       -4.6271594206       -6.8133066978
 H        -4.1882902780       -3.1938218080       -7.3628823654
 H        -2.3087734661       -1.7526248610       -7.3084547828
 H        -1.1506343218       -3.0784311387       -7.1512904806
 H        -3.9403812873        0.1529975626       -3.2795716667
 H        -4.5255112244       -1.1778758459       -4.3532303074
 H        -4.5426626467        1.7940865606       -5.1993832133
 H        -5.8067448808        1.0609870392       -4.1256026976
 H        -8.3117824468        3.0791150998       -8.7544074537
 H        -9.4926945589        2.2409920091       -7.7614212725
 H        -8.5889926686        0.8672398783      -10.2721284318
 H        -9.6102000813        2.1217680554      -10.5304342768
 H       -10.8027529239       -3.4854904630       -9.4484055812
 H       -10.0549511716       -2.7029014765       -8.0033083732
 H        -8.0561980340       -3.9785975420       -9.7383826084
 H        -9.4217539676       -5.1702320114       -9.4037301634
 H        -9.9268143741       -3.8509345687       -4.7599439223
 H       -10.8254924734       -5.1872649957       -4.4333934157
 H       -12.6576687160       -3.7398753872       -4.2198081722
 H       -12.6682291344       -4.2772629313       -5.8400709085
 H       -13.2772833649        1.0912716150       -3.6440695024
 H       -11.6180116360        0.7132171161       -4.0111907775
 H       -11.9666670696       -0.4584965353       -1.5288932080
 H       -13.0327687761        0.9483341501       -1.5749821486
 H        -7.8849095767        4.1206746706       -1.7226098694
 H        -7.5997518186        3.4992834185       -0.1090224746
 H        -9.1264425091        4.2350341503       -0.5357889394
 H       -11.7099234326        2.1489917747        0.7387042504
 H       -11.0435993476        3.3917991342        0.1266135432
 H       -10.2902681258        2.4174328068        1.4164096056
 H        -9.8498624290       -0.5898136680       -0.6021907853
 H       -10.4177114993       -0.0061422705        0.9411591538
 H        -8.7543061319        0.2779782997        0.3855019329
 H       -13.0601611881       -0.3224114838       -7.2702591805
 H       -12.1785467711        0.5143625872       -6.0096628050
 H       -14.0727722925        0.5134034994       -6.2857276189
 H       -15.4827748497       -1.1692885973       -5.3780133108
 H       -14.7797536928       -2.6806848530       -4.7019125915
 H       -14.8490940136       -2.4847593202       -6.4438615551
 H        -8.4411379142       -7.0405746515       -8.3092789519
 H       -10.0454882261       -7.2761732040       -7.6977886120
 H        -8.5255747292       -7.8555372980       -6.7746097161
 H        -7.7171812422       -4.7174463562       -5.0870218435
 H        -7.1463725189       -6.3814837148       -5.5066260637
 H        -8.7561102987       -6.0545836432       -4.6209468334
 H       -12.7222035892       -0.9261797704      -10.9213408798
 H       -12.4552478842       -1.1415318275       -9.1801726247
 H       -11.9378257768       -2.4161913846      -10.3334153560
 H        -9.2552848087       -0.1049429658      -11.9605133715
 H       -11.0009884089        0.0324618826      -12.4430588783
 H       -10.1167520727       -1.5920571257      -12.2199212472
 H        -9.4370957501        0.8148894294       -5.6964668338
 H        -8.2139642818        0.6949902549       -4.4609437989
 H        -8.3702825436       -0.6595392282       -5.7007020607
 H        -6.3927816892        3.0370379382       -5.3167041300
 H        -8.0211184237        2.8037155385       -4.7517659509
 H        -7.8868498850        3.4279230671       -6.4165527998
 H        -0.7539352667       -2.2166009049       -2.5756283003
 H        -2.3462888894       -1.5610053798       -2.6368384437
 H        -1.0531863577       -0.4801503942       -2.6934143778
 H         0.4511807774       -0.4462558949       -4.6300104971
 H        -0.3586798783       -0.3726851240       -6.1768567147
 H         0.2186257509       -1.8888111166       -5.6566074052
 H        -3.9067088248       -7.1654275118       -8.9651821541
 H        -5.4322293679       -6.2314445242       -9.2851632698
 H        -4.5575906714       -5.9140261835       -7.8503220393
 H        -1.7305263683       -5.1868264178      -10.8056177698
 H        -3.0399329690       -5.9987104681      -11.6843540205
 H        -2.3407312907       -6.8000363708      -10.3196537641
 H        -2.8246047359        2.0989415024      -10.5464152083
 H        -3.5633984331        1.0102669617       -9.3592993763
 H        -4.5621475284        2.0108879654      -10.4837936545
 H        -4.6462576529        0.8360402500      -13.1553596914
 H        -3.1879149927       -0.2053803205      -13.5231331765
 H        -2.9652636107        1.4642153576      -13.0407871959
 H         1.9920211665       -2.5473831114      -11.4955796083
 H         2.8880021374       -1.8812007974      -10.2890314490
 H         3.6975110715       -2.4426923178      -11.7758981985
 H         4.7000581202       -0.0674145571      -11.9018569220
 H         3.8237884838        0.4728407060      -10.4692478169
 H         3.7564331705        1.4882507581      -11.8407145498
 H         5.7969011001        3.1424368411      -16.0229886028
 H         7.3082799921        2.2145973600      -16.0717697768
 H         6.2465994607        2.0332774924      -14.6376233142
 H         6.9462738631        1.5344657280      -18.2845048787
 H         5.3062688637        2.3913702835      -18.2883376262
 H         5.5107195200        0.6773271340      -18.6946464546
 H        10.7704530196       -4.1995019872      -17.1036305810
 H         9.4292245019       -5.2020252029      -16.3745366967
 H         9.6462997825       -3.5948512070      -15.9906333832
 H        10.7937716581       -3.6589042736      -19.0830221083
 H         9.5683822145       -2.6395973228      -19.8207891379
 H         9.3512674789       -4.3639158916      -19.9856760834
 H         0.3717132596       -5.6477019263      -17.9085987779
 H         1.3553030567       -4.8475778528      -16.7454943910
 H         1.7864400594       -6.3517897644      -17.3186828404
 H         3.4190935286       -5.1227812714      -20.3948453238
 H         1.7201870824       -5.5435875022      -20.5161583755
 H         2.7392474248       -6.5746958568      -19.5557784925
 Na        3.5641854781       -1.8414151777      -16.2995089164
 Na       -6.6262249011       -1.9887322879       -8.1617297184
