232

 C         0.2875720941       -3.3666690086      -19.7420364384
 C         1.4711051648       -3.4146630484      -18.7374495872
 O         1.6465385640       -2.4963713311      -17.9808890957
 C         2.3393442672       -4.7224529092      -18.5545636672
 C         3.6493668009       -4.5345249562      -17.8072554792
 O         3.6550802630       -3.9125257005      -16.7122202983
 C         5.0591851601       -5.0019829657      -18.4066275773
 C         6.1467540166       -3.9752063826      -18.0808344039
 C         7.7079310523       -4.5077468312      -18.2560567323
 O         7.9562610270       -5.6324778547      -18.4726512235
 C         8.8600634964       -3.5916282025      -17.9431666690
 C         8.4203767865       -2.1476593539      -17.5682189294
 O         7.9768441892       -1.4848596992      -18.4668025457
 C         8.5807329390       -1.5244657836      -16.0868619162
 C         7.9756932027       -0.1305956566      -16.0952361184
 C         6.4935672214       -0.2147171408      -16.1515108712
 O         5.8658700528       -1.2672441542      -16.1512716173
 C         5.6885376252        1.0324821113      -16.5448025139
 C         4.1411830828        0.8905763246      -16.3001115762
 O         3.4163386208        0.5171563516      -17.2037867005
 C         3.6216935547        1.2588422792      -14.8027756441
 C         2.2409218801        0.7204945758      -14.4753163788
 C         2.5096346701       -0.5902813302      -13.6140581014
 O         2.7925875401       -1.6146648646      -14.1576039055
 C         2.4581526275       -0.5706197170      -12.0479138340
 C         1.1446748012        0.2529503434      -11.5564973182
 O         0.8428196667        1.3000650323      -12.0383993703
 C         0.4738621907       -0.3519601792      -10.2485816734
 C        -0.8266034058        0.3689159410      -10.1023097385
 C        -1.9044872190       -0.2706874077      -11.1909018454
 O        -1.6316228186       -1.1628222763      -11.9744905087
 C        -3.4679514854        0.2919287876      -11.2256059523
 C        -4.4744711199       -0.9619159123      -10.9379183893
 O        -4.9013197321       -0.8801169100       -9.7911113936
 C        -4.9402087949       -2.0586264019      -11.8945452830
 C        -4.1464136350       -3.3453949709      -11.8070911677
 C        -4.5697124247       -3.9890930743      -10.5157336751
 O        -5.5427187699       -3.6781274006       -9.8925013425
 C        -3.5865853667       -5.0261735167       -9.8224340172
 C        -2.7221785654       -4.0287834092       -8.9379341815
 O        -1.8645887767       -3.4011879535       -9.5217810833
 C        -3.2469412896       -3.7757591522       -7.4901571001
 C        -2.4296627632       -2.6802703528       -6.7583681849
 C        -2.3261872994       -2.6769683662       -5.2371175598
 O        -2.6213972399       -3.5856975167       -4.4774947627
 C        -1.6948408835       -1.3138659379       -4.7597640589
 C        -2.6981377957       -0.1802313970       -5.0407260715
 O        -2.5545228828        0.6481074841       -5.9393497333
 C        -3.9864094370       -0.1744132126       -4.2538720329
 C        -4.9256194950        0.9800672730       -4.7059846103
 C        -6.0885019919        0.2785646419       -5.7498326372
 O        -5.9346734572       -0.8728618760       -6.0779094422
 C        -7.4233913208        1.0727254527       -5.9933907701
 C        -7.6130828040        1.1996792199       -7.5258195330
 O        -6.8176494626        0.6662780146       -8.3287078021
 C        -8.7958135865        1.9517733723       -8.0172162260
 C        -9.1804348988        1.5114395451       -9.4934754594
 C       -10.3050931832        0.3310297581       -9.2892050073
 O       -11.2660234588        0.5640313742       -8.6465043384
 C       -10.4450740624       -0.9237579397      -10.2538813895
 C        -9.3181127641       -2.0524757736       -9.9632648576
 O        -8.1842211363       -1.8583954262      -10.2563527131
 C        -9.8036387272       -3.2894627227       -9.0988676241
 C        -8.7224133034       -4.4251677856       -8.9835536896
 C        -8.1145396090       -4.5678933516       -7.5563103072
 O        -7.1060279622       -3.9211966209       -7.2506759723
 C        -8.8451715520       -5.6075779061       -6.6760992264
 C       -10.3698302114       -5.0047118932       -6.4866241252
 O       -11.1250947743       -5.1437844005       -7.3775373247
 C       -10.8227881763       -4.4448171541       -5.0800821899
 C       -12.1316127218       -3.6818076827       -5.3916636611
 C       -12.0258397985       -2.2095157829       -5.8051934260
 O       -11.0499372405       -1.8170885544       -6.3913455688
 C       -13.3124377937       -1.3551128244       -5.4711669239
 C       -13.2067867870       -0.9050099564       -3.8470240910
 O       -13.2431413824       -1.8776551352       -3.0770537399
 C       -12.9324855829        0.5061582732       -3.3579808884
 C       -12.0220769289        0.4508732083       -2.0241383827
 C       -11.0218572656        1.5523114957       -1.8109248727
 O       -11.0229891945        2.5265830530       -2.5358284381
 C        -9.9303664036        1.5838162018       -0.6509526440
 C        -8.5760102099        2.1289546818       -1.1946947666
 O        -7.7739266156        1.4075757412       -1.7837850156
 C        -8.1916703779        3.6457897710       -1.0292840112
 C       -10.5672241307        2.6499736740        0.4369227749
 C        -9.7075535896        0.1016967439        0.0219418541
 C       -13.5440537666       -0.1537236030       -6.3923418506
 C       -14.4843652105       -2.3902936221       -5.6962388369
 C        -9.0152720595       -7.0643361384       -7.2352678857
 C        -8.1425215695       -5.8025211861       -5.2575669378
 C       -11.8871180023       -1.4408319496      -10.2049498618
 C       -10.1285936188       -0.3095195976      -11.6109329657
 C        -8.5515499821        0.2343836544       -5.3877966279
 C        -7.2224297118        2.4265669579       -5.4678196539
 C        -1.5373202544       -1.3421046831       -3.2343905485
 C        -0.2641774273       -1.0841831440       -5.3891818642
 C        -4.4224478958       -5.9514982165       -8.9772930766
 C        -2.7100517169       -5.7908626076      -10.8755032030
 C        -3.8047960747        1.4658975326      -10.3455201360
 C        -3.8051027036        0.7505939214      -12.7459901619
 C         2.5887453726       -1.9435454316      -11.3594613263
 C         3.7476673387        0.3558898314      -11.5545743345
 C         6.1158627847        2.4294464050      -15.8562055187
 C         5.8098506963        1.1460053832      -18.1417580652
 C         9.8066630619       -4.3262300123      -16.9525116928
 C         9.6076524344       -3.4473388157      -19.3101448105
 C         1.4878863625       -5.5556783215      -17.6555967826
 C         2.5311759903       -5.4894320284      -19.8809918117
 H        -0.2802867591       -2.5247754008      -19.3420413180
 H        -0.2348267692       -4.3930738328      -19.7502643923
 H         0.6065097173       -3.2727909349      -20.7483469922
 H         4.8862600116       -5.1119940606      -19.4887541979
 H         5.1258246193       -5.9982788276      -17.9407530218
 H         5.9953244003       -3.7455068781      -17.0385199119
 H         5.9300108816       -2.9686853150      -18.4947799777
 H         9.6297501223       -1.5037091211      -15.8839317473
 H         8.1902825915       -2.1674639358      -15.2570766534
 H         8.3500347436        0.3820958174      -17.0354023935
 H         8.3392025625        0.3943244659      -15.2194797839
 H         3.5192810065        2.3910387747      -14.6391673443
 H         4.3905950793        0.9078469303      -14.0171048885
 H         1.7032206960        0.3169622370      -15.4119182785
 H         1.6772709694        1.3758061332      -13.8974219390
 H         1.1015114610       -0.2033186950       -9.2994565061
 H         0.3231036318       -1.4678390708      -10.2065554639
 H        -0.7311672548        1.4380262427      -10.3818276592
 H        -1.3182023327        0.4468539720       -9.1364095098
 H        -4.8907049981       -1.5954148551      -12.8952972727
 H        -5.9201064926       -2.2554640654      -11.5876650054
 H        -3.0918877163       -3.1212731920      -11.8199958485
 H        -4.3199589105       -4.0059996228      -12.5810711301
 H        -3.0987695801       -4.7100735443       -7.0266547674
 H        -4.3456849701       -3.7332972662       -7.5474874076
 H        -2.6379955152       -1.6351698403       -7.1269618458
 H        -1.4315486221       -2.9672567768       -7.0663188125
 H        -3.7214036026       -0.0126814999       -3.2171448200
 H        -4.4232052400       -1.1780173343       -4.3895880621
 H        -4.2865987911        1.5793492768       -5.3788943046
 H        -5.4141770625        1.5612822887       -3.9425978447
 H        -8.4592596327        3.0307128451       -8.1001494424
 H        -9.6120043744        1.8447520471       -7.3519316829
 H        -8.3343077409        1.2572771267      -10.1460574018
 H        -9.7078915406        2.2322272865      -10.0755999575
 H       -10.7095519742       -3.6874246944       -9.4699887451
 H       -10.0127345731       -2.8524567620       -8.0735279024
 H        -7.8884916237       -4.1316256362       -9.6451233734
 H        -9.2270887492       -5.3323630936       -9.3313687759
 H        -9.9989052204       -3.7811030910       -4.7266945573
 H       -10.7669265336       -5.2405264636       -4.2954140683
 H       -12.7857042476       -3.6774025146       -4.4951909804
 H       -12.6934781217       -4.2362833171       -6.1822007890
 H       -13.9140032696        0.9615730086       -3.0623627052
 H       -12.4063714898        1.1869280161       -4.0720943775
 H       -11.4635209352       -0.4806133115       -2.0963010508
 H       -12.6361054657        0.3591081855       -1.1296758913
 H        -7.8427498429        4.0938684160       -1.9830977631
 H        -7.5284541560        3.7911912491       -0.1212901454
 H        -9.0895952007        4.2520006883       -0.8791059862
 H       -11.3738422177        2.3770190290        1.2537303447
 H       -11.0416495078        3.4809372094       -0.1203055055
 H        -9.6547116363        2.9123576273        1.0967459031
 H        -8.9463110433       -0.3476026481       -0.6723318712
 H       -10.5381603474       -0.5393968536        0.0622207761
 H        -9.2787602868        0.0651149293        0.9760807312
 H       -14.0952153213       -0.3337599791       -7.3800306788
 H       -12.5658795735        0.1454891057       -6.5579181278
 H       -14.1817295155        0.5679200907       -5.8861709790
 H       -15.2985627280       -1.7696910182       -5.9678133109
 H       -14.6183358609       -2.8890850730       -4.7935632841
 H       -14.2391966381       -3.1865405999       -6.3383878747
 H        -8.6791514642       -7.2082288254       -8.2508510495
 H       -10.0653878284       -7.1975054593       -7.2407867238
 H        -8.3934632456       -7.7507876437       -6.6098410661
 H        -7.9046528399       -4.7802920740       -4.8930828062
 H        -7.1705615526       -6.2285326840       -5.4849689777
 H        -8.6821573516       -6.3698641314       -4.5488777682
 H       -12.5221711716       -0.7515908869      -10.6186981189
 H       -12.1913381032       -1.5436809817       -9.1904096789
 H       -11.9830239243       -2.4020238198      -10.7513313670
 H        -9.0435987075       -0.3429867662      -11.7731209763
 H       -10.4059064867        0.6580915774      -11.6799875866
 H       -10.6597839242       -0.8436419564      -12.4361347364
 H        -9.4094715296        0.8010189166       -5.6513801289
 H        -8.4348743214        0.2229877274       -4.3314273016
 H        -8.4744759902       -0.7234002021       -5.9549771353
 H        -6.3629090976        2.9340603590       -5.8492768201
 H        -7.1280319841        2.4645685073       -4.4484865681
 H        -8.0740984160        2.9701728094       -5.6914902931
 H        -0.9699023992       -2.2176942743       -3.1285302753
 H        -2.2766765727       -1.4581274414       -2.4036113743
 H        -0.8028669516       -0.6016535296       -2.8778564824
 H        -0.0457103817       -0.0203926400       -5.4728479896
 H        -0.0927291395       -1.4393043480       -6.4817865590
 H         0.4871818857       -1.6039833416       -4.7621881861
 H        -3.8347460367       -6.3807256803       -8.2292077793
 H        -4.9156815720       -6.6805758024       -9.5418455114
 H        -5.3280421064       -5.4656327002       -8.5662030488
 H        -1.8164350375       -5.1685950752      -11.2525426200
 H        -3.2852853064       -6.1054831944      -11.7549937839
 H        -2.3439772138       -6.7143795300      -10.5058743080
 H        -3.5876514140        2.4810791383      -10.8514508618
 H        -3.3040019185        1.3010457746       -9.3791985824
 H        -4.8608940005        1.5060698415      -10.1216110486
 H        -4.7942294567        1.0726724775      -12.7593784243
 H        -3.6474440101       -0.1712933867      -13.3497673001
 H        -3.1112130884        1.4829568490      -13.0902595949
 H         1.8162893622       -2.6683927444      -11.6010523673
 H         2.5190235097       -1.8165502701      -10.2644344199
 H         3.5776347243       -2.2873146417      -11.6110937301
 H         4.6538991804       -0.2015202106      -11.8089446528
 H         3.7048887489        0.6458129358      -10.4935239618
 H         3.5817680279        1.3902832547      -11.9404092279
 H         5.3048261384        3.1723644102      -16.0374117410
 H         7.0021552026        2.8518287794      -16.1919503625
 H         6.2323092548        2.2088426749      -14.7741598784
 H         6.8789430950        1.3899546005      -18.3909242388
 H         5.2116506542        2.0234862248      -18.4306228976
 H         5.4720534149        0.1357198465      -18.5654659356
 H        10.7238604161       -4.5791015378      -17.3129573618
 H         9.1780682340       -5.1545156310      -16.6131184292
 H         9.9815035289       -3.8361246068      -15.9852516311
 H        10.6784596908       -3.8308385470      -19.0179026549
 H         9.7123397319       -2.4159208408      -19.5965446301
 H         9.1103728460       -3.9547578500      -20.0735537234
 H         0.6385167001       -5.8066136525      -18.3646990571
 H         1.0764574359       -5.0568264386      -16.7046950333
 H         1.8659203893       -6.5711781931      -17.5128055072
 H         3.0611448717       -4.8668699103      -20.5497413711
 H         1.6262549881       -5.7189798752      -20.3622019012
 H         3.0431122870       -6.3971520902      -19.7001631479
 Na        3.3509737799       -1.7441483971      -16.4719172197
 Na       -6.4545860956       -1.8092751525       -8.4584936097
