232

 C         0.3989638629       -3.4960324200      -19.6335538810
 C         1.4724818839       -3.4302936010      -18.5791779098
 O         1.5755724979       -2.4388263630      -17.9099625115
 C         2.2541086261       -4.8249906141      -18.5577139659
 C         3.7406250214       -4.5007134228      -17.9395082835
 O         3.7781079995       -4.0180938745      -16.8034049766
 C         5.0850683856       -4.8436118968      -18.5616224682
 C         6.2090259956       -4.0070721093      -18.0448124753
 C         7.5724399019       -4.5160686945      -18.1534272692
 O         7.8392640972       -5.6466348272      -18.5136562528
 C         8.9331306896       -3.5672169986      -17.9107882064
 C         8.4703229979       -2.1163719474      -17.5654486585
 O         7.8300933616       -1.5268541247      -18.4159297087
 C         8.5736603393       -1.5125880760      -16.1644580448
 C         7.9207513921       -0.1064104374      -16.0259818282
 C         6.4186240445       -0.2449090922      -16.2534744599
 O         5.8653143438       -1.2974350863      -16.4731673061
 C         5.5830901984        1.1329215373      -16.5853123950
 C         4.1968156819        0.9916772486      -16.2715850736
 O         3.3466775604        0.6774817130      -17.1284277551
 C         3.7788249575        1.2892755174      -14.8816905836
 C         2.3906519899        0.7102763878      -14.4941131215
 C         2.4644022532       -0.5359166880      -13.6427010903
 O         2.8618609812       -1.5825275634      -14.2118238883
 C         2.3798021694       -0.5522900345      -12.1186955088
 C         1.0801073212        0.1744288922      -11.5187002677
 O         0.7327418162        1.1718407811      -12.0526316350
 C         0.3099499445       -0.3019660342      -10.3692754486
 C        -1.0370326092        0.4531166827      -10.2057055990
 C        -2.0093097970       -0.1226222214      -11.1395058171
 O        -1.6150050182       -1.1038075925      -11.7479526742
 C        -3.4887927153        0.3403673931      -11.2356618747
 C        -4.4092968231       -0.8726222196      -10.9112276142
 O        -4.7124635597       -0.9891309529       -9.7616352687
 C        -4.8469699073       -1.8786007333      -11.9811383246
 C        -4.1436124274       -3.2518799298      -11.8043130016
 C        -4.5239933171       -3.9350281085      -10.4803816605
 O        -5.5319499156       -3.5512408815       -9.9357943308
 C        -3.6169029344       -5.0447065804       -9.8325770752
 C        -2.7075511750       -4.0517310503       -8.9660897799
 O        -1.8285632673       -3.3894665217       -9.4303588106
 C        -3.1240630954       -3.9047686297       -7.4818708099
 C        -2.4756918148       -2.7293110705       -6.8374354283
 C        -2.3729360320       -2.6399329129       -5.3247884416
 O        -2.8110661829       -3.3719911365       -4.4961072063
 C        -1.6271183421       -1.3292083589       -4.7226558773
 C        -2.7272737163       -0.1221913319       -5.0658481418
 O        -2.4973288841        0.7202466487       -5.9097984560
 C        -3.9729242819       -0.0660846917       -4.1322347619
 C        -5.0295800695        0.7885772733       -4.7231459605
 C        -6.1488080345        0.0999391261       -5.5544476568
 O        -5.9955875223       -0.9805198137       -6.0562020923
 C        -7.3927257515        1.0559511313       -5.8038193721
 C        -7.5354763121        1.0931864628       -7.4193073684
 O        -6.6702999418        0.6568115788       -8.2073963789
 C        -8.8266387162        1.8051599653       -7.8973620618
 C        -9.2808324446        1.3382460533       -9.3161155135
 C       -10.3429990861        0.3142196767       -9.2923851058
 O       -11.2922587201        0.4686818765       -8.5265220724
 C       -10.3593027995       -0.9165186678      -10.3496332438
 C        -9.3423829842       -2.1170369682       -9.9407884961
 O        -8.1556100313       -2.0558544303      -10.3764098457
 C        -9.7092406054       -3.3140650970       -9.0285844867
 C        -8.5979262276       -4.3493748578       -9.0314942295
 C        -8.0858033281       -4.5293060442       -7.6002136030
 O        -7.1680894875       -3.8618025095       -7.1635431000
 C        -8.8855551751       -5.5510854605       -6.6349924005
 C       -10.3326360392       -5.0342383936       -6.4837213257
 O       -11.0790800476       -5.2487207539       -7.4121964630
 C       -10.7313371682       -4.3225997672       -5.2232996309
 C       -12.1151102009       -3.6171393170       -5.1865627863
 C       -12.0164999990       -2.2408948641       -5.7116447876
 O       -11.0246728165       -1.7903359650       -6.2401417002
 C       -13.3373859168       -1.3394050719       -5.4605965437
 C       -13.2224944005       -0.9996522441       -3.8939540080
 O       -13.3796938597       -1.9264854127       -3.1737778614
 C       -12.9421481881        0.3711312873       -3.3045841319
 C       -11.9206783236        0.3236681138       -2.1653413212
 C       -11.0304365809        1.6305446490       -1.8787039527
 O       -11.0613927471        2.6492417913       -2.5073883293
 C        -9.8740207748        1.6469405795       -0.7247578323
 C        -8.5679977662        2.1118173446       -1.2392290827
 O        -7.7505549798        1.3502175468       -1.7041744110
 C        -8.2102443354        3.6230958936       -1.1443191183
 C       -10.4175147098        2.5236451463        0.4314557222
 C        -9.7001094610        0.2564717022       -0.0751678218
 C       -13.5546791989       -0.1222692528       -6.3984551571
 C       -14.5823999574       -2.3912702561       -5.5801872159
 C        -8.9721021180       -6.9604705911       -7.2585797631
 C        -8.1450428829       -5.6574162323       -5.2251492926
 C       -11.7905754702       -1.4085199028      -10.2249848163
 C        -9.9965914357       -0.2783843447      -11.7474411131
 C        -8.6425231013        0.1858300748       -5.3253390780
 C        -7.2553336262        2.4856838531       -5.2345819753
 C        -1.5029792754       -1.4767541350       -3.1826049922
 C        -0.2633205458       -1.0219532886       -5.3940617801
 C        -4.4290523051       -6.0734045084       -8.9899430111
 C        -2.7619952248       -5.7128153424      -10.9160412679
 C        -3.7131407715        1.5066500323      -10.2083107504
 C        -3.7983725375        0.7776367398      -12.7679684887
 C         2.5778257769       -1.9504487639      -11.5935996958
 C         3.6271807734        0.3159302755      -11.6152610218
 C         6.2005399511        2.4469826339      -15.9808133177
 C         5.8113167380        1.1038177196      -18.1475892305
 C         9.8967933167       -4.2943586066      -16.9366487058
 C         9.6105231025       -3.4130235649      -19.3776466244
 C         1.4713533888       -5.8408357724      -17.5820812271
 C         2.4758183330       -5.4144225171      -20.0114871295
 H        -0.0286934543       -2.5579941902      -19.9143560214
 H        -0.2673999530       -4.2758150807      -19.2837797891
 H         0.8177516420       -4.1173878174      -20.3806591249
 H         4.9197138976       -4.7908993048      -19.6022247751
 H         5.1510541048       -5.9166965796      -18.1876755043
 H         5.9418616604       -3.6409459373      -17.0253277799
 H         6.3258302628       -3.0526109780      -18.5444326666
 H         9.6374596797       -1.3265436096      -15.9653288074
 H         8.3273759652       -2.2903594349      -15.4166225892
 H         8.4150601192        0.5130009863      -16.7846202258
 H         8.1998535933        0.2325844877      -15.0157187685
 H         3.5798291922        2.3667118651      -14.7058306248
 H         4.5470556853        0.9939582562      -14.1330211571
 H         1.7614367515        0.3711911940      -15.3164013361
 H         1.9569877707        1.4421357893      -13.8146910886
 H         0.8234502900       -0.2306162868       -9.3820679100
 H         0.1549493818       -1.3736854066      -10.4063577351
 H        -1.0290277119        1.5417316804      -10.3660420557
 H        -1.4784317819        0.3718181733       -9.2551146946
 H        -4.6499559254       -1.5100226457      -12.9620925797
 H        -5.9245125425       -1.9792684725      -11.7931424124
 H        -3.1179880598       -3.0749494762      -11.9884581162
 H        -4.4547477968       -3.9319914545      -12.5529186728
 H        -3.0518773654       -4.8274047860       -6.8943134156
 H        -4.1905663426       -3.7585299074       -7.5682214101
 H        -3.1018261988       -1.8829403609       -7.0288234395
 H        -1.5132017945       -2.5625941584       -7.3807880906
 H        -3.5546986775        0.6022884043       -3.3266806654
 H        -4.3308971930       -0.9727623698       -3.7225399630
 H        -4.6354897694        1.6184758145       -5.2601772563
 H        -5.7175405786        1.1325020060       -3.8875952386
 H        -8.5936250957        2.9238219912       -8.0245497090
 H        -9.6028067864        1.6037145657       -7.1623520835
 H        -8.4811167395        0.9087726405       -9.9250615051
 H        -9.6513842836        2.1673242591       -9.9893631816
 H       -10.5361010669       -3.7898402238       -9.4942706175
 H        -9.9689363045       -2.9928759078       -8.0143242061
 H        -7.7806500301       -4.0747663967       -9.6440097584
 H        -9.0782777249       -5.1846787964       -9.3828740363
 H        -9.8961894214       -3.7356271642       -4.8459970843
 H       -10.6380665623       -5.1635455815       -4.5131324146
 H       -12.5754606731       -3.6563148703       -4.1290541243
 H       -12.8311105641       -4.1042578289       -5.8480380536
 H       -13.8661698491        0.7035645520       -2.8222027489
 H       -12.6382248751        1.1222396554       -4.0262319506
 H       -11.2986894982       -0.5673227772       -2.3190517672
 H       -12.4457082765        0.1567418901       -1.2556475050
 H        -7.5144569590        3.9634715924       -1.8960301087
 H        -7.8098622498        3.6080239391       -0.1192663003
 H        -9.0305996775        4.4117023927       -1.1705799041
 H       -11.1461631912        2.0714452725        1.1122256843
 H       -10.9658153389        3.4724590593        0.0390718220
 H        -9.5159221636        2.6906347161        1.1474037595
 H        -8.7340572714       -0.1278803423       -0.4050601564
 H       -10.4604703461       -0.4979042119       -0.3570302029
 H        -9.7093612468        0.2074752129        1.0039203697
 H       -14.1740610702       -0.4010112063       -7.2064104664
 H       -12.5978850838        0.2601115173       -6.7664857080
 H       -14.2231085859        0.5647665514       -5.8218300324
 H       -15.5191096992       -1.8231493866       -5.4129902129
 H       -14.3405942407       -3.1768169105       -4.8283145634
 H       -14.4447311070       -3.0173596908       -6.5506922730
 H        -8.6231940939       -6.9253463664       -8.2346586986
 H       -10.0394583266       -7.2412528671       -7.3184241723
 H        -8.2467851854       -7.6273503012       -6.7566424750
 H        -8.1661306216       -4.7270781715       -4.7130383433
 H        -7.0678103839       -5.8419905422       -5.4098536649
 H        -8.5540532183       -6.4633320898       -4.6809616212
 H       -12.4856106119       -0.5945767807      -10.0362420526
 H       -11.8995857551       -2.0966044476       -9.4040754289
 H       -12.0841049555       -1.8896302318      -11.1538403522
 H        -8.9563967975       -0.2338891792      -11.9411082713
 H       -10.3996791904        0.7741761013      -11.8492946342
 H       -10.5034744677       -0.7524851669      -12.5176368551
 H        -9.5361127918        0.8374463135       -5.4402106142
 H        -8.4203213077       -0.0179767855       -4.2602698406
 H        -8.6298579913       -0.7253049773       -6.0146842441
 H        -6.7428290953        3.1689589486       -5.8328616416
 H        -6.7911144417        2.5412806454       -4.3063765698
 H        -8.2064260444        2.8874438137       -5.0793858857
 H        -0.8546004840       -2.2616892986       -2.9060443020
 H        -2.2961161876       -1.7517166490       -2.6458161113
 H        -1.1023369403       -0.5709504909       -2.6734452791
 H        -0.2398806072        0.0430880755       -5.6969067993
 H        -0.0641002887       -1.5004402635       -6.3150966801
 H         0.6008347735       -1.2766687201       -4.7158335432
 H        -4.1756620107       -6.0456629227       -7.9440285301
 H        -4.5657418791       -7.0989081707       -9.3025695873
 H        -5.4849414577       -5.7224458616       -9.0941558462
 H        -2.1536447670       -5.0247572882      -11.4130995290
 H        -3.2853097583       -6.3162199257      -11.6494921142
 H        -2.1219950473       -6.4012453063      -10.4267234927
 H        -3.4405678918        2.4580453272      -10.5618297594
 H        -3.2981248099        1.1878759296       -9.2202203944
 H        -4.7735071513        1.6131142284      -10.0378788081
 H        -4.8763116021        0.9698311288      -12.8967702385
 H        -3.4589062698       -0.0053784932      -13.3735463120
 H        -3.1141884814        1.6425552097      -12.9577972098
 H         1.6259952672       -2.4911374323      -11.7170114848
 H         2.7290126883       -1.9220776239      -10.4964256087
 H         3.4772965610       -2.4566742226      -12.0808450681
 H         4.4280865079       -0.2925854823      -12.0574903375
 H         3.7264998088        0.3331443398      -10.5221087446
 H         3.5287813636        1.4052159624      -11.7731294764
 H         5.5798408097        3.2472982841      -16.3348700259
 H         7.1220521883        2.6171621155      -16.5096081988
 H         6.4483489852        2.5207871366      -14.8833723466
 H         6.9240526876        1.2614846497      -18.4223127591
 H         5.2878636785        1.8973929549      -18.6337429807
 H         5.4413250478        0.0989194988      -18.3728271209
 H        10.8398637389       -4.5939791862      -17.4112541188
 H         9.2561858253       -5.1057185841      -16.5549098198
 H        10.1872791298       -3.7996249943      -16.0071142946
 H        10.6087014715       -3.7280131194      -19.2777463949
 H         9.6032039007       -2.3529329645      -19.6338228686
 H         9.0147418921       -3.9600238209      -20.1149152938
 H         0.5099265128       -6.0729085514      -18.0400613100
 H         1.2672260206       -5.2893468471      -16.6113944118
 H         1.8930591365       -6.9194633938      -17.4841504260
 H         2.7507209523       -4.7111531413      -20.7753993107
 H         1.5924111165       -5.9416290902      -20.3863302900
 H         3.2297940194       -6.1992183198      -19.8364585514
 Na        3.2274304750       -1.7386558162      -16.4897340290
 Na       -6.4305977486       -1.8027107833       -8.5656446870
