232

 C         0.0936644303       -3.6823330743      -19.3981105611
 C         1.3718034058       -3.6317335620      -18.5386924106
 O         1.6590346160       -2.7654926871      -17.7741291151
 C         2.4454958279       -4.9001855484      -18.6257722132
 C         3.7593342422       -4.4851749883      -18.0637911672
 O         3.6975823367       -4.0665946711      -16.9005441629
 C         5.0767528279       -4.5672122796      -18.8697882416
 C         6.1861184069       -3.8032464943      -18.2038233507
 C         7.5383067249       -4.4585725608      -18.2300055920
 O         7.8107113259       -5.6087885830      -18.3815405634
 C         8.8483116062       -3.4705707777      -18.1085143232
 C         8.3718365342       -2.0424001994      -17.7119193319
 O         7.7804643577       -1.3211747693      -18.4837430389
 C         8.3179444622       -1.6647147192      -16.1556146064
 C         7.6432893212       -0.3610014448      -15.8763018332
 C         6.2949773076       -0.3671166371      -16.5999036598
 O         5.5071574258       -1.3141930812      -16.4904898866
 C         5.7076255215        1.1226040436      -16.9324036452
 C         4.2741811597        1.0852302220      -16.4301779350
 O         3.3660920477        0.6184697509      -17.1231091141
 C         4.0522116869        1.5265439207      -14.9689562116
 C         2.6525827108        1.1280694117      -14.4277261357
 C         2.6344171498       -0.3866479087      -13.7632926040
 O         2.6698393100       -1.4324874682      -14.3952040593
 C         2.3106652395       -0.5189615283      -12.1697221826
 C         0.9087769894        0.2052373446      -11.7637324044
 O         0.4599926006        1.0263823336      -12.4444293377
 C         0.4144291038       -0.2211807995      -10.3474854519
 C        -0.9588775938        0.2948120497      -10.0642322531
 C        -1.9719873445       -0.0944749427      -11.1444569819
 O        -1.8425248654       -1.0098002668      -11.9511683476
 C        -3.4347844289        0.5976090485      -11.1815682153
 C        -4.3381865986       -0.7012482802      -10.7599422867
 O        -4.4224339972       -0.9677557933       -9.5697884909
 C        -4.8562617132       -1.6865238438      -11.8212309216
 C        -4.0693720125       -3.0687188483      -11.6497924405
 C        -4.5940791680       -3.8524379585      -10.3778582782
 O        -5.6889488187       -3.7416518854       -9.8933799862
 C        -3.5729007028       -4.9803696423       -9.8039938954
 C        -2.5620731235       -4.1359779751       -8.8914094894
 O        -1.6080636963       -3.6732200330       -9.4612661807
 C        -2.9049901687       -3.9614805815       -7.4382057137
 C        -2.5045930972       -2.5569643008       -6.9659187499
 C        -2.4060566591       -2.4916242012       -5.4538809429
 O        -3.2739361706       -2.9819852706       -4.7817519722
 C        -1.6827405524       -1.3641129562       -4.7215571240
 C        -2.7769514500       -0.0893836385       -4.8623569167
 O        -2.6385087593        0.7425389466       -5.7311408968
 C        -4.0161587046       -0.2218520939       -3.9133020341
 C        -5.1939447273        0.7027063582       -4.1509729448
 C        -6.1518316152       -0.0279539017       -5.2547144989
 O        -5.7574013819       -0.9617297882       -5.8819921715
 C        -7.5041033157        0.7348188839       -5.5497205189
 C        -7.7030233920        0.8472302121       -7.1451386602
 O        -6.7411274652        0.4749757590       -7.8620522044
 C        -8.8577502121        1.5593101804       -7.8769472557
 C        -9.0880121120        0.9884315037       -9.3158282623
 C       -10.2474445389        0.0277511718       -9.2753904179
 O       -11.0748994153       -0.0966177593       -8.3743918246
 C       -10.3642912665       -0.8979349078      -10.5690719979
 C        -9.2845637901       -1.9765446205      -10.0693668428
 O        -8.1132376567       -1.7533153797      -10.1871539656
 C        -9.6612429577       -3.0089592774       -9.0408369735
 C        -8.6696917734       -4.1950259889       -9.0139409163
 C        -8.1340858276       -4.3698403707       -7.6037697346
 O        -7.4541353876       -3.4792912819       -7.1007702193
 C        -8.6086514002       -5.4996752706       -6.5933788799
 C       -10.1606507622       -4.9538203370       -6.4007398816
 O       -11.0101336739       -5.2958608216       -7.1640164925
 C       -10.5658643516       -4.1292680862       -5.1763728431
 C       -12.0340149511       -3.7629564044       -5.1518224417
 C       -12.1980730404       -2.2525108632       -5.5446936090
 O       -11.2631554640       -1.6314253720       -5.9510866290
 C       -13.5046580162       -1.3860440400       -5.2369874061
 C       -13.2631297675       -0.9028583107       -3.6350068785
 O       -13.5061533156       -1.7716714960       -2.8161533074
 C       -12.5462291707        0.3658072357       -3.4560839051
 C       -11.3865776269        0.1213352862       -2.5027567652
 C       -10.8913279270        1.4213238194       -2.0319626310
 O       -11.3284813318        2.5022363933       -2.3945581387
 C        -9.9741608950        1.4739930282       -0.7741564662
 C        -8.5386156931        2.0810259833       -1.4471794687
 O        -7.7522900685        1.2732705522       -1.8846383366
 C        -8.3845832287        3.5784596995       -1.5867417666
 C       -10.5662757566        2.4702516553        0.2056456709
 C        -9.6249519550        0.1354026477       -0.1919793348
 C       -13.4038397255       -0.1372921075       -6.1649853807
 C       -14.8371711030       -2.1228485008       -5.4813151448
 C        -8.5430616437       -6.8418034956       -7.3462859944
 C        -7.8110718592       -5.5544729750       -5.2788681772
 C       -11.7825667967       -1.5165460296      -10.6808120819
 C        -9.9462851854       -0.1764057360      -11.9020933574
 C        -8.6161460563       -0.1415556621       -4.9523123170
 C        -7.4946304641        2.1752254819       -4.9905539258
 C        -1.3995245343       -1.7316409559       -3.3228595169
 C        -0.2674520154       -1.0244164136       -5.3997853585
 C        -4.4956745978       -6.1172602418       -9.2421940608
 C        -2.6940298018       -5.5457701121      -10.9226606594
 C        -3.7908129075        1.7021909753      -10.1235955477
 C        -3.6769495664        1.2046098242      -12.5985699450
 C         2.2475447173       -1.9915915326      -11.7547819481
 C         3.4464924491        0.1622119441      -11.3844975207
 C         6.6235011417        2.3274042897      -16.4003873207
 C         5.4814595027        1.3852537582      -18.4756586237
 C         9.7854270666       -4.2363649240      -16.9763770365
 C         9.4956772113       -3.4222956763      -19.5179754776
 C         1.9499854857       -6.0146725086      -17.6048866636
 C         2.6196646641       -5.5631117128      -19.9755445063
 H         0.2671927402       -2.7913541621      -20.0103409998
 H        -0.8163042535       -3.4919034247      -18.7196443508
 H        -0.0541356337       -4.6557217681      -19.8512284625
 H         4.9190167640       -4.0859564728      -19.8327982878
 H         5.4970061553       -5.5902700079      -18.9288905924
 H         6.1101802178       -3.5968702603      -17.1377128052
 H         6.3068217235       -2.7999672692      -18.6120429900
 H         9.3055043687       -1.5934743676      -15.7849060811
 H         7.8747483394       -2.5194229267      -15.5922081136
 H         8.3460408091        0.4573708806      -16.1582177478
 H         7.4389866947       -0.3440402847      -14.8174568349
 H         4.1091451738        2.6111698110      -14.7988981522
 H         4.7861292252        0.9703909470      -14.3549473503
 H         1.9150106997        1.0254860199      -15.2823294169
 H         2.3499830559        1.6885408647      -13.6045917191
 H         1.1323423867        0.0178935842       -9.5069190087
 H         0.3914943496       -1.3181886031      -10.2798649160
 H        -1.0253467598        1.4188475240      -10.0126424253
 H        -1.4399314276        0.0085181395       -9.1167516073
 H        -4.7110336346       -1.2678800690      -12.8411944723
 H        -5.8827145657       -1.9845337046      -11.6608506713
 H        -2.9587759950       -2.9028187090      -11.6042902618
 H        -4.2105471836       -3.6272031607      -12.5762597910
 H        -2.3935489761       -4.7556092479       -6.9226902637
 H        -3.9938215856       -4.0605408980       -7.1963624022
 H        -3.3501745173       -1.8622817178       -7.2423102164
 H        -1.6357655121       -2.1409946976       -7.4892551523
 H        -3.6526087134        0.0845395092       -2.9022171236
 H        -4.3385128341       -1.2795048168       -3.8312273140
 H        -4.8331172529        1.6182354952       -4.6241446524
 H        -5.7667488719        0.8609643327       -3.2431672283
 H        -8.4141795055        2.5711211418       -8.0015858523
 H        -9.7234766305        1.5098255737       -7.3309055600
 H        -8.2334686792        0.4069962388       -9.7237205447
 H        -9.2690602937        1.7603837403      -10.0243332258
 H       -10.6049105285       -3.4574178156       -9.2353949709
 H        -9.6660867163       -2.5548782448       -7.9942338709
 H        -7.7588820267       -4.0164030002       -9.7171055182
 H        -9.2691868099       -5.0924949231       -9.3293339439
 H        -9.9967213152       -3.1743422470       -5.3028031561
 H       -10.1249430061       -4.4845167750       -4.2203777641
 H       -12.3961663008       -3.9477820771       -4.1333272772
 H       -12.6145437250       -4.3827205478       -5.8222328671
 H       -13.1702473940        1.1324390695       -2.9298241699
 H       -12.3033335091        0.8290568230       -4.4326595653
 H       -10.6176914409       -0.5207562555       -2.9695671681
 H       -11.7565716240       -0.4772657676       -1.6592023366
 H        -7.3621327907        3.7190809194       -1.8387052064
 H        -8.7575298636        4.1406920675       -0.7325790823
 H        -8.9155729001        3.9219689141       -2.4804922665
 H       -11.5401123022        2.0251458845        0.4753714575
 H       -10.6081706282        3.5114714508       -0.1645902509
 H        -9.9298398532        2.5302109388        1.1321141168
 H        -9.0908139207       -0.5753184541       -0.8783287764
 H       -10.5353740723       -0.3382741343        0.1182244277
 H        -9.0728325433        0.2979735634        0.6868729339
 H       -13.4225169449       -0.5592862263       -7.1888949048
 H       -12.5147913753        0.4392014444       -6.1546154271
 H       -14.3280731983        0.4352624422       -5.9416068045
 H       -15.5540259788       -1.5435361418       -5.0433829800
 H       -14.8428224164       -3.0459671234       -5.0114244098
 H       -14.9548745038       -2.1805971876       -6.5332161955
 H        -8.5759816421       -6.8063632072       -8.4027714316
 H        -9.3689791211       -7.4134028037       -6.9219156187
 H        -7.5598021495       -7.3502214829       -7.0763601053
 H        -7.5164579102       -4.4988442294       -5.0823487260
 H        -6.8202302147       -6.0728834018       -5.4086370955
 H        -8.3252618401       -6.1157156513       -4.5414217398
 H       -12.4908783880       -0.7698998266      -10.9128887422
 H       -12.0436204052       -2.0524018639       -9.7798734857
 H       -11.8175770296       -2.2136541297      -11.5672160677
 H        -9.2149632841        0.6500538001      -11.7689380586
 H       -10.8367939494        0.1741863131      -12.4174867241
 H        -9.5395024388       -0.8434904580      -12.6759424748
 H        -9.5696879742        0.0733463703       -5.2750450941
 H        -8.4469352221       -0.1576254903       -3.9312055220
 H        -8.2167251645       -1.0557394148       -5.3902077821
 H        -6.4383679905        2.5720847682       -5.0164302988
 H        -7.7427259614        2.2064847747       -3.9212489075
 H        -8.0922528171        2.9822234890       -5.5078030102
 H        -0.4189594740       -2.1979274209       -3.1316308727
 H        -2.0481546195       -2.3993220967       -2.8468598830
 H        -1.3102093389       -0.7984897836       -2.5877243483
 H        -0.4279684364       -0.5399101313       -6.3324191535
 H         0.2614415075       -1.9417181693       -5.7107996812
 H         0.4460422773       -0.3937292849       -4.8253826623
 H        -5.2136246256       -5.6698038910       -8.6033629931
 H        -4.0191343605       -6.8679878835       -8.6659877484
 H        -5.0881623317       -6.6795285627      -10.0123426900
 H        -2.0554537242       -4.6924731971      -11.2867863328
 H        -3.3170367059       -5.8374633016      -11.8489772945
 H        -2.0137971921       -6.3567451231      -10.6365683470
 H        -2.8828040225        2.2967211723       -9.8676172929
 H        -4.3404243352        1.4087191052       -9.1805497073
 H        -4.3673418169        2.4682018775      -10.5919331900
 H        -4.7135207765        1.1413008032      -12.7715401363
 H        -3.2159974016        0.4941281879      -13.2938861684
 H        -3.2196130436        2.1985207781      -12.6775742038
 H         1.4253796555       -2.4907699436      -12.1815750671
 H         2.2342673120       -2.0352875070      -10.6932137193
 H         3.1743872882       -2.4460588863      -12.0232840193
 H         4.4010435732       -0.3004231809      -11.4903547943
 H         3.1801405914        0.1120562799      -10.3426273138
 H         3.3615023569        1.2367757872      -11.5973549329
 H         6.0165987339        3.2370656555      -16.5562259637
 H         7.4819506202        2.4312097586      -16.9494212858
 H         6.9909020135        2.3131020331      -15.3267356762
 H         6.4503698224        1.2908808645      -19.0597964667
 H         5.3386152058        2.4043242954      -18.5241750678
 H         4.5998395835        0.8151676916      -18.8072156018
 H         9.8856918697       -5.2192535145      -17.3354026675
 H         9.4071366559       -4.1874173018      -15.9401955105
 H        10.7843292976       -3.8135688096      -16.9940327813
 H        10.4309695088       -2.8860526423      -19.2434915457
 H         8.8800746132       -2.7573858784      -20.1546553890
 H         9.7487533649       -4.4294974625      -19.8791821666
 H         0.9581577364       -6.2289632061      -17.8445512173
 H         2.0124243680       -5.6914022159      -16.5702965579
 H         2.5589344096       -6.9107993392      -17.8021015395
 H         3.1657022954       -4.8882583581      -20.6067003155
 H         1.7312103142       -5.9289037267      -20.4856317879
 H         3.2739371685       -6.4321370998      -19.8108297998
 Na        3.3598715401       -1.7425749240      -16.6345123215
 Na       -6.4464020972       -1.7934653336       -8.3163812350
