232

 C        -0.0053727457       -4.1848520987      -19.2863811380
 C         1.3121776666       -3.8779370937      -18.5199928796
 O         1.5955760579       -2.8558552521      -17.8957492769
 C         2.4401185997       -5.0300889904      -18.5851281098
 C         3.8367969337       -4.4823041136      -18.0251032954
 O         4.0061967042       -3.9879582961      -16.9373517329
 C         5.0544904444       -4.6695186402      -18.9378913552
 C         6.0848642891       -3.5913813557      -18.4578078067
 C         7.5437929092       -4.3375411430      -18.3578117604
 O         7.5752474359       -5.5548167110      -18.3478167411
 C         8.8168705341       -3.5032978717      -18.2139664337
 C         8.3409877518       -2.0720055927      -17.6253824624
 O         8.2142082269       -1.1446024932      -18.4233588383
 C         8.1378142286       -1.8341920700      -16.0922362428
 C         7.7069112728       -0.3476118540      -16.0285028573
 C         6.2961821412       -0.2244271014      -16.6947571477
 O         5.5917611713       -1.2111494698      -16.6746428698
 C         5.7247332407        1.1066446147      -17.0403065653
 C         4.1757437030        1.0284533748      -16.3633758229
 O         3.2354587224        0.5450957075      -16.9270818461
 C         4.1214182847        1.5171781771      -14.9199780014
 C         2.7832999921        1.3821546795      -14.2000892540
 C         2.6429723057       -0.1608499761      -13.7323810113
 O         2.6503584392       -1.0895968313      -14.4840400908
 C         2.2758661479       -0.4171915351      -12.2456355338
 C         0.9208620647        0.1268975383      -11.8375658531
 O         0.3193082806        0.8924273300      -12.6479562593
 C         0.3794034288       -0.3201965482      -10.4308621965
 C        -0.8891709309        0.4235789493      -10.0442031500
 C        -1.9790698877        0.0318344361      -11.1183186120
 O        -1.6742497333       -0.6413285918      -12.0765267829
 C        -3.4346658379        0.6221145798      -11.0135614643
 C        -4.4823775987       -0.5894801287      -10.5169171056
 O        -4.6863404851       -0.6672183569       -9.3272895741
 C        -5.0397549792       -1.6516883615      -11.5592068740
 C        -4.1032510265       -2.8790254361      -11.6038533301
 C        -4.5363154981       -3.8530958281      -10.4171843480
 O        -5.5879927001       -3.6638256155       -9.8052774464
 C        -3.4901548012       -5.0356057981       -9.9652922187
 C        -2.5111930872       -4.1580440220       -9.0387131041
 O        -1.4154985161       -3.7593765268       -9.4036677176
 C        -3.0174381953       -3.9330793449       -7.6207773015
 C        -2.3747197708       -2.6942059397       -6.9951918710
 C        -2.6684764715       -2.4645184381       -5.5163583393
 O        -3.4679130473       -3.2000734787       -4.9163875085
 C        -1.9083705942       -1.3326968019       -4.8180549352
 C        -2.9025626349       -0.1681540586       -4.6278990559
 O        -2.8881487742        0.7931510466       -5.3879229858
 C        -3.9529921876       -0.3311779421       -3.5644374781
 C        -5.1820241008        0.5575884950       -3.9696942210
 C        -5.9223801495        0.0363417648       -5.2091427867
 O        -5.5353874290       -0.9389604609       -5.8967849406
 C        -7.3696859211        0.6304568768       -5.5880179774
 C        -7.6213439693        0.6794088015       -7.1768100192
 O        -6.8751835081        0.3003181975       -7.9831018695
 C        -8.9495359179        1.3452194873       -7.5714717968
 C        -9.1850860736        1.1969863190       -9.0523340675
 C       -10.2616838134       -0.0082148761       -9.3233761513
 O       -10.9760467691       -0.3163343983       -8.4440717734
 C       -10.2854726267       -0.8488489947      -10.6727060019
 C        -9.2269029514       -1.8299596689      -10.0508401254
 O        -8.0401697109       -1.4677955157      -10.0605582370
 C        -9.7285054638       -2.9421614623       -9.2061598068
 C        -8.7663154909       -4.1219087681       -8.8545574571
 C        -8.1952961221       -4.1294842350       -7.4811724167
 O        -7.4957287263       -3.2809296497       -7.0065029528
 C        -8.6101431309       -5.3285380992       -6.5162712144
 C       -10.1478546507       -5.0974438887       -6.2727858742
 O       -10.9488903619       -5.4945175795       -7.0971984734
 C       -10.5517315465       -4.2788180362       -5.0678923450
 C       -12.0338330941       -3.7330402704       -5.2284119382
 C       -12.0459327707       -2.1620516287       -5.5498886309
 O       -11.0812160547       -1.5229417645       -6.0014527066
 C       -13.4629806625       -1.4668907621       -5.2482578309
 C       -13.2839951368       -0.9527267766       -3.7630072807
 O       -13.7965142936       -1.6130246207       -2.8727635287
 C       -12.4644394195        0.3855637883       -3.5067122143
 C       -11.2660504786        0.0117692062       -2.5803682604
 C       -10.8430844406        1.3504541868       -1.9140859496
 O       -11.2082772758        2.4262077666       -2.3696007506
 C        -9.8429379579        1.4492040783       -0.7220595942
 C        -8.6102799246        2.0649011773       -1.5138908344
 O        -7.7924391483        1.2728678424       -2.0069233705
 C        -8.5685307849        3.5160038278       -1.8178717666
 C       -10.4699525659        2.4864320915        0.3625967848
 C        -9.3943210237        0.1634357822       -0.0566042053
 C       -13.7538254653       -0.2471042902       -6.2109471927
 C       -14.6865509023       -2.4440632832       -5.1898516096
 C        -8.5959666084       -6.7644483652       -7.1796322258
 C        -7.6656774751       -5.3518054547       -5.3148381500
 C       -11.6707572042       -1.5759420199      -10.8848130165
 C        -9.8297748925       -0.2020216781      -11.9822983132
 C        -8.3442712758       -0.3889522882       -5.0056417108
 C        -7.7456826391        2.0836559857       -4.9635714328
 C        -1.4134948953       -1.8084899191       -3.3061897985
 C        -0.7090563863       -0.7807654814       -5.5726653691
 C        -4.1930933980       -6.0151766949       -8.9703633851
 C        -2.8432994934       -5.6919737578      -11.2571211898
 C        -3.5466944524        1.8155411066       -9.9909067699
 C        -3.8729357870        1.0169445363      -12.4647945033
 C         2.2878078444       -2.0187496710      -12.1114497065
 C         3.4690928335        0.1474606806      -11.3245239507
 C         6.4434913561        2.3504530532      -16.5466243546
 C         5.6786168757        1.0818501746      -18.6509189656
 C         9.8845150559       -4.1509110775      -17.2091969228
 C         9.5483758801       -3.2255357033      -19.6363982268
 C         1.7951602983       -6.1262380793      -17.7226699886
 C         2.3918022569       -5.5192084043      -20.0964750160
 H         0.1549274435       -4.0236400936      -20.3514254947
 H        -0.7146460994       -3.4654162748      -18.9433488946
 H        -0.3184328462       -5.1487616364      -18.9091305802
 H         4.9834534642       -4.5007847987      -20.0252757323
 H         5.3782532307       -5.6579536864      -18.6110644560
 H         5.9518355984       -3.1140576277      -17.4769762367
 H         6.0724816861       -2.7908577676      -19.2368711978
 H         8.9960099749       -2.2819872046      -15.4934426399
 H         7.2246565404       -2.3594623264      -15.8346407315
 H         8.3936744105        0.2771121802      -16.5759432546
 H         7.5676827055        0.0772994121      -14.9981092495
 H         4.3566510492        2.5960703790      -14.8353977446
 H         4.8609734956        0.8811438174      -14.3954523013
 H         2.0139975968        1.6328751527      -14.8888969312
 H         2.7429148125        1.8565178845      -13.1982254656
 H         1.1294723408       -0.0474915400       -9.6956588604
 H         0.3077057312       -1.4215060768      -10.2949504253
 H        -0.7266347128        1.4788094507       -9.9745770060
 H        -1.3279770258        0.1107015708       -9.0864520820
 H        -5.1881625228       -1.2381911775      -12.5376567070
 H        -5.9929437993       -2.0589913569      -11.2192708368
 H        -3.1015072785       -2.5777487989      -11.6284343627
 H        -4.2345176790       -3.3459940930      -12.5526091187
 H        -2.6489770009       -4.8488860503       -7.1062273312
 H        -4.0765460670       -3.7515371500       -7.4874753767
 H        -2.7747703529       -1.8531099576       -7.5391356828
 H        -1.2941678534       -2.6310936464       -7.1415641293
 H        -3.7568834474       -0.2120028601       -2.5109932064
 H        -4.2069027335       -1.3896339614       -3.7117801342
 H        -4.8813460141        1.5062509575       -4.4545473412
 H        -5.9314797411        0.6986841619       -3.1741728557
 H        -8.8289837449        2.3557664891       -7.2211787624
 H        -9.7586093071        0.7065180104       -7.0223427289
 H        -8.2199176945        1.1074517358       -9.5574915300
 H        -9.7446833914        2.1233985925       -9.3954461508
 H       -10.4883554023       -3.5008824454       -9.8260040875
 H       -10.2092112335       -2.5359883713       -8.3642491260
 H        -8.0407975101       -4.1256733599       -9.5756572858
 H        -9.3703451891       -4.9868560664       -8.9246852087
 H        -9.7448013415       -3.5632123591       -4.8361963520
 H       -10.4661975967       -4.9520629058       -4.1963109097
 H       -12.6060808659       -3.9172765363       -4.3053287242
 H       -12.4617695543       -4.3442172894       -6.0795938138
 H       -13.0092973844        1.1866746950       -3.0103203908
 H       -12.1581491721        0.8384004269       -4.4416426076
 H       -10.5490987805       -0.5724835379       -3.1320463458
 H       -11.6834278431       -0.7160159339       -1.8778092220
 H        -7.6872785522        3.8096140873       -2.4799387087
 H        -8.7897150823        4.1590455214       -0.9364754105
 H        -9.4580259884        3.6893812280       -2.4619968122
 H       -11.0424397007        1.7589012363        1.0565960471
 H       -11.0112016533        3.3683826894        0.0201295636
 H        -9.6144601643        2.9653471424        0.8973523793
 H        -9.9177054649       -0.7174519822       -0.3665263769
 H        -9.6854823274        0.2833176786        0.9908699588
 H        -8.2854369676        0.0472877207       -0.0952062819
 H       -14.3922736654       -0.5623280384       -7.0473863581
 H       -12.7732719095        0.0783352163       -6.6214226858
 H       -14.1268397123        0.5340915174       -5.5971939726
 H       -15.6358104751       -1.7626272970       -5.1750947982
 H       -14.7889945447       -2.8252066750       -4.1286688566
 H       -14.7398835163       -3.0776093649       -6.0981450309
 H        -9.5069563876       -6.9420387146       -7.8482604851
 H        -8.4691239718       -7.5035890584       -6.3943305821
 H        -7.7373693270       -6.8056507048       -7.7889765464
 H        -7.4488320734       -4.4046642388       -4.8737556953
 H        -6.7590525323       -5.7765600852       -5.6199702038
 H        -8.0696906363       -6.1555243944       -4.6741706647
 H       -12.1677313856       -1.1695646466      -11.7622023025
 H       -12.2471181318       -1.4421396270       -9.9866227309
 H       -11.6275188339       -2.6103131154      -11.0504178989
 H        -8.9421490186        0.3703622619      -11.8244056809
 H       -10.5636045877        0.3538566455      -12.4937887938
 H        -9.5078073976       -0.9392517897      -12.7267678477
 H        -9.3035242548       -0.0389502759       -5.4892621212
 H        -8.2341381767       -0.2892658495       -3.8796088443
 H        -8.0178128019       -1.3481531861       -5.4050817045
 H        -7.5071736910        2.9193893585       -5.5458549351
 H        -7.3826335102        2.1908443636       -3.9989990355
 H        -8.7591305794        2.1684983883       -4.8971450810
 H        -0.9505303259       -2.7369077728       -3.3216924088
 H        -2.2040614337       -1.9403840715       -2.5485325306
 H        -0.7753404208       -1.2185996289       -2.7650069453
 H        -0.7011776986       -0.6501540367       -6.6943117527
 H         0.1858505062       -1.3949613368       -5.3122285949
 H        -0.4949167188        0.2155956068       -5.2018730748
 H        -5.2649499850       -5.8831267226       -8.8223811555
 H        -3.6862022090       -6.1380926876       -8.0014180343
 H        -4.2686782356       -6.9450282839       -9.4698234336
 H        -1.9377765730       -5.1907540287      -11.6018964457
 H        -3.5434085294       -5.6447938080      -12.0255632070
 H        -2.5541094213       -6.7205054033      -11.0659965832
 H        -2.8933107234        2.7141458964      -10.0678246124
 H        -3.3651182896        1.3527756000       -9.0513253192
 H        -4.6348499080        2.1172919102       -9.8805335057
 H        -4.8028739392        1.6063043700      -12.4137163713
 H        -4.0584794416        0.1297528328      -13.1120001469
 H        -3.0706633568        1.5994674127      -12.8325719511
 H         1.4401358004       -2.3732973885      -12.7390404027
 H         2.2350734801       -2.2593526872      -11.0317249825
 H         3.2023231772       -2.4621634989      -12.5090020311
 H         4.2626804242       -0.6559662183      -11.3720620003
 H         3.2542813565        0.3162742043      -10.2102472030
 H         3.8346494318        1.0776513929      -11.8169982825
 H         5.8734419621        3.2736605128      -16.4032421923
 H         7.4258056663        2.4658563534      -17.0879536189
 H         6.7968991597        2.1747575563      -15.5455864834
 H         6.6921295278        0.8667529140      -18.8217356949
 H         5.5291382326        2.1217126987      -19.1443541105
 H         5.0036037389        0.2724251013      -18.9920322982
 H         9.4620840823       -4.8091390989      -16.3969945343
 H        10.3129906834       -3.2754925955      -16.7074059906
 H        10.7493413168       -4.6092314988      -17.7531491167
 H         9.7066518537       -2.1325592655      -19.8542157281
 H         8.8106560315       -3.5571801307      -20.2880314956
 H        10.4575891584       -3.7757982310      -19.6201183455
 H         0.9331710336       -6.6712316105      -18.3143878214
 H         1.3414188493       -5.6753069238      -16.7911522228
 H         2.5915553776       -6.8171503897      -17.4407077071
 H         2.6635012793       -4.6728319957      -20.7154245565
 H         1.4358183315       -5.9633759002      -20.2634956152
 H         3.0846465514       -6.2911314679      -20.3059155209
 Na        3.2234818681       -1.7551945198      -16.6927334917
 Na       -6.1054621875       -1.8044785425       -8.2130522643
