232

 C       -17.2660480291       -5.5163416370       -4.3247029741
 C       -17.8162450514       -6.5717504361       -3.4334243240
 O       -17.1031220252       -7.5341387503       -3.0281855348
 C       -19.3577139224       -6.5305003786       -3.0729043940
 C       -19.3886677218       -6.7879844929       -1.4868430615
 O       -19.5829612592       -7.9480795481       -1.0618013128
 C       -19.3621722451       -5.6679841788       -0.4852148878
 C       -18.3024339495       -5.8616552960        0.6545294571
 C       -16.8834243799       -6.0131315858        0.1034534819
 O       -16.6289663418       -5.7019991922       -1.0484703584
 C       -15.7516870461       -6.7774169560        0.9018996829
 C       -15.6659007878       -8.2416702814        0.2488207958
 O       -16.5230096784       -9.0535939335        0.5378185710
 C       -14.4417875116       -8.5561281669       -0.6355935946
 C       -14.2833457293      -10.0875841184       -0.7670542476
 C       -14.6166404247      -10.5810178286       -2.1627150422
 O       -15.7258021382      -10.6145232944       -2.6828601307
 C       -13.3414849559      -10.8762838585       -3.1287190415
 C       -12.7983593994       -9.4170751907       -3.7344078967
 O       -13.4398994184       -8.4150172357       -3.4667453351
 C       -11.6051910091       -9.5033969394       -4.7537964931
 C       -12.1002491768       -9.1917354540       -6.1366624977
 C       -10.8003855511       -8.9352413684       -7.0495825824
 O        -9.8676616838       -9.6770752126       -6.7942471345
 C       -10.9383236506       -7.9503434970       -8.2486452153
 C       -10.8301738340       -6.3678303392       -7.6067492762
 O       -10.5714089885       -6.2896348857       -6.4439619760
 C       -11.0100113831       -5.0886300517       -8.5330676338
 C        -9.6688803727       -4.3319222555       -8.5970473386
 C        -9.6956735793       -3.2713039669       -9.7271846281
 O       -10.5984539530       -3.2160087860      -10.5058742770
 C        -8.6333287763       -2.1754810342       -9.8362843707
 C        -7.5094599630       -2.8091064641      -10.7530899655
 O        -7.1672444587       -3.9695433785      -10.7810828112
 C        -6.6821505960       -1.7149424931      -11.5289725822
 C        -5.3889913237       -2.2042546516      -12.1190077358
 C        -4.8023564371       -1.0468827920      -13.0223520343
 O        -5.2187560595        0.0684167750      -12.9962910073
 C        -3.6232923159       -1.5917462993      -14.0182140909
 C        -2.4076586361       -1.8605265472      -13.0216490755
 O        -2.3162777878       -1.1677250009      -11.9941517776
 C        -1.3631037948       -2.9737563583      -13.1314678103
 C        -0.3212087379       -3.0461726541      -12.0719442596
 C         0.7507257462       -1.8406402358      -11.8958819994
 O         1.3883423367       -1.4091587074      -12.7865548918
 C         1.1127940729       -1.4559212831      -10.3946487098
 C         2.2959343849       -0.4429984416      -10.4845430314
 O         3.4542262060       -0.7979966638      -10.7915667411
 C         2.0726803722        0.9923958060      -10.2514706407
 C         3.4611111902        1.7309897896       -9.9165799297
 C         3.1640106222        3.2939246681       -9.5388342210
 O         2.1552055645        3.7585254361       -9.1525105839
 C         4.4478534911        4.1966323448       -9.6703380840
 C         4.4771157758        4.4770656460      -11.2214170227
 O         5.2955523873        3.8758631402      -11.9223656642
 C         3.4224857986        5.3126834233      -11.7737057817
 C         4.0629942185        6.7321943105      -12.1848587765
 C         4.6944354750        6.8965126927      -13.5998303177
 O         4.7251546214        6.0206109520      -14.4064720933
 C         5.5679128825        8.1378100362      -13.8720354367
 C         6.9778141756        7.7737966317      -14.5183678092
 O         7.1818593831        8.3294812312      -15.5678483693
 C         7.9507093057        6.7630760172      -13.8495552848
 C         8.8505497056        5.9662941111      -14.8402327901
 C         8.1944091014        5.4909686627      -16.1484623275
 O         7.3671727059        4.5987312455      -16.0356044827
 C         8.7921179679        5.8857260340      -17.4991038617
 C         9.8471439380        4.6525244316      -17.8921116145
 O        10.3388615557        3.9797078349      -17.0244506449
 C        10.1943870430        4.4758810990      -19.3661038703
 C        10.4016501372        2.9964211249      -19.8155826473
 C         8.9699633389        2.3475531124      -19.6094341395
 O         8.0602186178        3.0108702784      -19.2125815649
 C         8.8364940682        0.8179639287      -19.7825134974
 C         8.7515884105        0.1448966121      -18.2156772730
 O         9.5352016793       -0.7322779648      -17.9759330308
 C         7.9281968494        0.8294905801      -17.1762674849
 C         8.3301346297        0.4506145615      -15.7631463758
 C         7.2829551321        0.9955540292      -14.8095866108
 O         7.5798067608        2.1664076031      -14.4656686538
 C         6.1190175937        0.1618292544      -14.2423787491
 C         4.6976241956        0.7441170025      -14.7448503330
 O         4.6048293930        1.8805263583      -15.1611511517
 C         3.4914391705       -0.1385579353      -14.5957572878
 C         6.2283495551       -1.3633728764      -14.4177369152
 C         6.0426364254        0.4181398648      -12.6934252887
 C         7.4786428115        0.5763559231      -20.3401893988
 C         9.9427112777        0.0557852376      -20.5289148014
 C         7.5825273919        6.0379956259      -18.4898861508
 C         9.5558734523        7.1834895412      -17.4918078144
 C         4.7221361394        9.0467383364      -14.8146314364
 C         5.7610678257        8.9405620793      -12.5480681485
 C         4.1536121398        5.6566316703       -8.9676087819
 C         5.8113799214        3.6908235916       -9.0959289917
 C        -0.1103829193       -0.8744397530       -9.6357744233
 C         1.7042918306       -2.7434542398       -9.7203975190
 C        -4.2010402689       -2.6833104306      -14.9005191109
 C        -2.9957344730       -0.4756925549      -14.8505240253
 C        -9.2560707540       -0.7419663289      -10.3790427837
 C        -7.9331591241       -1.9404957878       -8.4596208570
 C        -9.7569021526       -8.2083292333       -9.1985024231
 C       -12.3959010610       -8.0069465276       -8.9408296136
 C       -12.1558004302      -11.5978984434       -2.2778838412
 C       -13.7663373341      -11.7053171937       -4.3339492754
 C       -14.4586010646       -5.9403575941        0.7317688305
 C       -16.0225280530       -7.0711123068        2.4006523546
 C       -19.9841129583       -5.1414511379       -3.3695042761
 C       -20.0506955458       -7.6177217059       -3.8251977253
 H       -17.2667084591       -4.6589185198       -3.6597293020
 H       -17.8809305003       -5.2887661532       -5.1597823302
 H       -16.2734886752       -5.8109998440       -4.6305634730
 H       -20.3227820657       -5.6227644925        0.0897037904
 H       -19.1511538669       -4.7058990719       -0.9649406123
 H       -18.4970958614       -6.7956957846        1.2350973802
 H       -18.2714523540       -5.0168254282        1.3893098393
 H       -13.5330521464       -8.1223749595       -0.1899931052
 H       -14.6621195288       -8.0891383574       -1.5976859236
 H       -14.9716949686      -10.6519226385       -0.1064303209
 H       -13.3745887859      -10.5400791173       -0.5265017478
 H       -11.0876343122      -10.4752217454       -4.8425571840
 H       -10.8033102581       -8.7565845960       -4.4047859581
 H       -12.7871759739       -8.3342503253       -6.1811110782
 H       -12.6540988358       -9.9921993332       -6.5652671425
 H       -11.7247887289       -4.4772138473       -8.0055145981
 H       -11.3137420008       -5.3379973212       -9.5198381468
 H        -8.8597132613       -5.0509958126       -8.8673592803
 H        -9.5330694081       -3.8328918159       -7.5935371587
 H        -6.3473870647       -0.9977412111      -10.7313773865
 H        -7.2428960455       -1.2429805086      -12.3701895559
 H        -5.6124683880       -2.9964392261      -12.8516662327
 H        -4.6221043838       -2.5160027078      -11.3969737404
 H        -0.9174035778       -2.8732942002      -14.1205728569
 H        -1.9429355547       -3.9086313143      -13.2324546457
 H         0.3180260467       -4.0527244841      -12.0524686009
 H        -0.8325678964       -3.0879308537      -11.1054951658
 H         1.2694164821        1.1791168909       -9.5931497927
 H         1.8284706708        1.4938336077      -11.2507882106
 H         4.1384271662        1.7015898930      -10.7788836077
 H         3.8869464280        1.2090565108       -9.0297679577
 H         2.6827638150        5.7227835473      -11.1233078756
 H         2.8323753643        4.8908284598      -12.6050420462
 H         4.8810098263        6.9490354738      -11.4849833123
 H         3.3435690283        7.5714061394      -12.1870340302
 H         7.3896051669        6.1128670202      -13.1444047252
 H         8.6006083642        7.4577560482      -13.2935029717
 H         9.3268369775        5.1203937194      -14.4155427037
 H         9.7315963425        6.7748649451      -15.0739327979
 H        11.1762737901        5.0099330926      -19.4702616001
 H         9.5732868842        4.9831301596      -20.0703153272
 H        11.1666833603        2.3817401271      -19.2689918439
 H        10.6757042993        3.1824873496      -20.8746187482
 H         6.8410950628        0.6188802975      -17.2638297799
 H         7.9273580449        1.9036317357      -17.3932597270
 H         9.3182358069        0.8452124839      -15.5973591195
 H         8.4172122603       -0.6937300453      -15.6861763718
 H         3.3571321837       -0.6104954947      -15.6409234590
 H         2.7096779779        0.5281704977      -14.2442493536
 H         3.5299668040       -1.0062699913      -13.9061347051
 H         5.3516005239       -1.9557220104      -14.2510979861
 H         7.0678982745       -1.6942330601      -13.7305414574
 H         6.3595137832       -1.4209514771      -15.4867020958
 H         5.0366412260        0.1802675150      -12.1505737626
 H         6.0632413282        1.4645237250      -12.4688398030
 H         6.7684906096       -0.1661048143      -12.0787764139
 H         7.2688377357       -0.4333147553      -20.0918476281
 H         7.3391208632        0.7462336726      -21.3780834768
 H         6.7254433339        1.1934319156      -19.9051520818
 H         9.6080449688       -0.5393805009      -21.3699768376
 H        10.3478019195       -0.5797181978      -19.7382213126
 H        10.7427334862        0.7383834726      -20.7155033158
 H         6.8681142298        6.7193398370      -17.9560835265
 H         6.9897126292        5.1436544925      -18.5640865897
 H         7.8054446227        6.4547202185      -19.4490049973
 H        10.4017356715        7.2819622921      -16.7972538740
 H         8.8565790110        8.0531553804      -17.2497148821
 H        10.0983944093        7.2852001280      -18.4883565590
 H         5.2846037125        9.9769853912      -14.9551714186
 H         3.7391530673        9.1673118712      -14.4832431194
 H         4.7564716001        8.6558899479      -15.8630480993
 H         5.9261089687        9.9816513488      -12.7664747986
 H         6.7295773933        8.6226772726      -11.9811662865
 H         4.9351016953        8.7858128503      -11.8403550013
 H         4.4688903247        5.3603304502       -7.9595360285
 H         3.0737073316        5.8566558854       -8.8224606460
 H         4.7054418396        6.3752938595       -9.5147817199
 H         6.5931390437        4.3734473021       -9.1886595374
 H         6.2280037421        2.9429039243       -9.7601735005
 H         5.8354031448        3.2974145641       -8.0643849462
 H        -0.7493525585       -0.1697500656      -10.2140645838
 H         0.1055291872       -0.4388616731       -8.6787079330
 H        -0.6945794833       -1.7171652754       -9.3610794940
 H         1.0019472606       -3.4988520021       -9.2741552218
 H         2.2839083342       -2.2852341496       -8.8640380279
 H         2.3740301916       -3.3528238893      -10.3793720782
 H        -4.5135382911       -3.5898217113      -14.3602465955
 H        -3.4630881339       -3.0287817595      -15.5567875756
 H        -5.0840927368       -2.3396125569      -15.4567865487
 H        -2.2112307141       -0.9273668442      -15.5343184542
 H        -2.6069434266        0.3014757316      -14.1969927825
 H        -3.7456670178        0.0285974279      -15.4120584558
 H        -9.9624738282       -0.3975714068       -9.6159593631
 H        -9.6263856661       -0.9947867288      -11.3719164919
 H        -8.4860883881       -0.0157974470      -10.3360317669
 H        -8.6423655413       -1.7660454060       -7.6914490930
 H        -7.3154582830       -1.0357680118       -8.5139165199
 H        -7.3323695108       -2.8170101440       -8.2213934877
 H        -9.2319222874       -9.1762605962       -9.1314725911
 H        -9.0158674807       -7.4261783707       -9.3117938147
 H       -10.2644263416       -8.1698436273      -10.1821775415
 H       -12.6826330834       -8.9464879901       -9.3217565905
 H       -12.2594952867       -7.5104882369       -9.8879582681
 H       -13.2133947978       -7.5961511003       -8.3544557567
 H       -11.8017568093      -10.6873182480       -1.6932916624
 H       -11.4436676118      -11.9244201612       -2.9783632643
 H       -12.4728643880      -12.4405199545       -1.6478574563
 H       -14.7291390051      -11.3600689979       -4.7284519932
 H       -13.8125916989      -12.7226475754       -4.1233824049
 H       -12.9929690778      -11.5625891150       -5.0495506044
 H       -14.1716228290       -5.8739077945       -0.3280502545
 H       -13.7790894934       -6.3620072241        1.4545343267
 H       -14.6769312743       -4.9481695011        1.1142265368
 H       -16.6929770362       -7.9203104493        2.3689861444
 H       -16.4686207033       -6.2540235022        2.8960911273
 H       -15.0453495111       -7.3625856257        2.8282206368
 H       -19.3948763049       -4.3565214904       -2.9814657304
 H       -20.9815412593       -5.0126971345       -3.0433524457
 H       -20.0252051976       -5.0334611429       -4.4864915918
 H       -21.1491425034       -7.5905479302       -3.7263967540
 H       -19.6514220541       -8.5905322814       -3.6410959452
 H       -19.8509234242       -7.5554835752       -4.8489412123
 Na      -17.7307306482       -9.4917178080       -1.5842701175
 Na        5.9242030193        3.7470968740      -14.1198682200
