232

 C        -0.1927147066       -4.5597171182      -18.7846335583
 C         1.2944213994       -4.0711395571      -18.5493289311
 O         1.4256114770       -2.8896232498      -18.2155525766
 C         2.4576472669       -5.1574022718      -18.6969833057
 C         3.8024523014       -4.5254426718      -18.3498004670
 O         4.0216237936       -3.7970387739      -17.3848797390
 C         5.1009975806       -4.7384775503      -19.1639410071
 C         6.0918240242       -3.5350379286      -18.9493597342
 C         7.4512896015       -4.2456155071      -18.4777770540
 O         7.4316281913       -5.3606262898      -18.0541542450
 C         8.7840453858       -3.3795851357      -18.4166177174
 C         8.6125296462       -1.9071838089      -17.9429743032
 O         8.7380303563       -0.8987436433      -18.5856670858
 C         8.3717165760       -1.8488462940      -16.3639119326
 C         7.6584776296       -0.5501308949      -15.8442943321
 C         6.2217492757       -0.4623450026      -16.4720931197
 O         5.4361147328       -1.3818030040      -16.4993064106
 C         5.4702304448        0.9689295483      -17.0618641700
 C         4.1346253388        1.3252509012      -16.3379635981
 O         3.1334996061        0.8881152262      -16.8872080623
 C         4.0317394594        1.9534993660      -15.0157547452
 C         2.8198072833        1.4499299695      -14.1591028334
 C         2.7123453486       -0.1163437916      -13.8434121166
 O         2.8362440262       -0.9325817693      -14.6982744712
 C         2.4599599926       -0.4959809996      -12.3819796462
 C         1.0980399580        0.2725146993      -11.9835831653
 O         0.7161786329        1.2054616578      -12.6205629754
 C         0.3296228421       -0.4178793331      -10.7945712335
 C        -0.8450647051        0.4716592714      -10.3616944715
 C        -2.1119449999        0.1203728059      -11.1784185581
 O        -2.2108474326       -0.7471609984      -12.0172442108
 C        -3.4936296280        0.8627505643      -10.9876674956
 C        -4.2783792979       -0.4195611769      -10.3117168282
 O        -4.0977678873       -0.6026869707       -9.1039088320
 C        -5.0767100238       -1.4447184814      -11.2297579958
 C        -4.2359624240       -2.7337241742      -11.2762972191
 C        -4.4904062463       -3.7635233046      -10.1129170649
 O        -5.4327091594       -3.7050801812       -9.3537947695
 C        -3.5113130759       -4.9876863549      -10.0581731077
 C        -2.4264246533       -4.3580827402       -9.0400530894
 O        -1.3835445755       -4.0154705330       -9.5388433395
 C        -2.8757503066       -4.0311374683       -7.6357046503
 C        -2.0992300181       -2.7832054483       -7.0856053771
 C        -2.5656959635       -2.4492601958       -5.6550779610
 O        -3.4286745817       -3.1235154592       -5.1059642483
 C        -1.8765165495       -1.3300752660       -4.8491625664
 C        -3.0553458799       -0.2523426614       -4.5549041180
 O        -3.0025889213        0.9389010439       -4.7932611445
 C        -4.2691184667       -0.7001512834       -3.7456243409
 C        -5.5609796689        0.1524923845       -3.9074497746
 C        -6.0345825771        0.0515646472       -5.3459337246
 O        -5.3027414358       -0.5532398791       -6.1881554762
 C        -7.5366754285        0.4271790967       -5.6484726030
 C        -7.8437057827        0.6563007286       -7.1950811481
 O        -7.2570379399        0.2445005729       -8.1489475875
 C        -9.2239811204        1.4020238694       -7.3134287510
 C        -9.7498648046        1.3627794664       -8.7655351250
 C       -10.5218466800        0.0827965042       -9.1720427266
 O       -11.6385441947       -0.1025295825       -8.8436549292
 C        -9.9567849154       -0.7737362097      -10.4500874119
 C        -9.0569818970       -1.9435405571       -9.8718719759
 O        -7.8319095141       -1.7824399136       -9.8003473932
 C        -9.6503896713       -3.1880159753       -9.3059325498
 C        -8.6272208641       -4.2811202554       -8.7829543755
 C        -8.1112211427       -4.0678321244       -7.3256909980
 O        -7.6608881478       -3.0252909972       -6.9176534997
 C        -8.5083357518       -5.3018561004       -6.4116727454
 C       -10.1149889062       -5.0941701909       -6.2029783476
 O       -10.8888874613       -5.6684724737       -6.8946806276
 C       -10.4476227693       -4.1990119460       -5.0327793849
 C       -12.0301948695       -3.9440816954       -4.8780715089
 C       -12.2132243383       -2.4727350896       -5.3346905756
 O       -11.2207046739       -1.8730392140       -5.7763009696
 C       -13.5121873218       -1.7416351186       -5.1869701659
 C       -13.2833910435       -1.1060700383       -3.7776936136
 O       -13.9798933466       -1.4019263044       -2.8107978832
 C       -12.2564175318       -0.0490630800       -3.6302006897
 C       -11.7570947308        0.0945047576       -2.1388062482
 C       -11.1241451111        1.4024218978       -1.7434335621
 O       -11.5447078932        2.4766210972       -2.1010004609
 C        -9.8166827259        1.4447156685       -0.8434716942
 C        -8.4771348629        2.1135863782       -1.5175394253
 O        -7.5411069583        1.4027229914       -1.8962598043
 C        -8.3538642886        3.6480467510       -1.7987256344
 C       -10.1620463774        2.3841077607        0.3493502844
 C        -9.2922911621        0.0893524553       -0.2413412880
 C       -13.6723736360       -0.5672009495       -6.2620659809
 C       -14.8472719829       -2.5748709308       -5.0706812507
 C        -8.2584531854       -6.7188918059       -6.9493917205
 C        -7.6524243964       -5.1971403970       -5.1284973973
 C       -11.1296848321       -1.3781259466      -11.3308408924
 C        -9.0518662525        0.1629927012      -11.2857766739
 C        -8.5074733818       -0.6764658870       -5.0787768566
 C        -7.8255761771        1.6810950824       -4.8592475188
 C        -1.5571611381       -1.9228291191       -3.4669530557
 C        -0.7389741690       -0.4927712148       -5.4469304978
 C        -4.1434942988       -6.2857406238       -9.5152295003
 C        -2.8261711972       -5.3392574075      -11.4424780869
 C        -3.4144211955        2.0836272430      -10.0001979779
 C        -4.2711566277        1.2578129076      -12.2407373086
 C         2.3398883411       -2.0071348858      -12.3067694167
 C         3.5907629636        0.0177392555      -11.4584174626
 C         6.6574220190        2.0356949262      -16.8167546499
 C         5.1353855250        0.8404305823      -18.5690728461
 C         9.9671695996       -4.0510512249      -17.5357610239
 C         9.2996951437       -3.2920566703      -19.9329866790
 C         2.1876897327       -6.2733851152      -17.5523948967
 C         2.3570550869       -5.7774339587      -20.2404119325
 H        -0.2961918951       -5.4798771429      -19.3652008686
 H        -0.5952003832       -3.6554376343      -19.3355030228
 H        -0.6379572661       -4.6880185804      -17.7928872003
 H         4.8935396231       -4.9435924822      -20.2510830645
 H         5.6867466446       -5.5124619948      -18.6431932902
 H         5.7278820588       -2.9174914311      -18.1460491232
 H         6.5210452905       -3.0014717865      -19.8089859025
 H         9.3742928021       -1.7370984795      -15.8765041994
 H         7.9023378804       -2.7478071327      -16.0428877850
 H         8.3052198873        0.2586968952      -16.1700164180
 H         7.5603217986       -0.4270822012      -14.7233175366
 H         3.8546490948        3.0851232882      -15.0745875949
 H         4.9564908176        1.9554248307      -14.3537277021
 H         1.8984254330        1.5314645744      -14.7401781672
 H         2.6498232997        2.0613840124      -13.2392146316
 H         1.0346105662       -0.5225508054       -9.9244562019
 H        -0.0871860489       -1.4729907817      -11.0026785279
 H        -0.6427932352        1.5194892572      -10.4312787991
 H        -1.0772653358        0.1788238659       -9.3177672533
 H        -5.2231945430       -1.0579257769      -12.2253836302
 H        -6.0546662846       -1.6874345838      -10.8696770842
 H        -3.2492181045       -2.4441931557      -11.4164855316
 H        -4.4835562462       -3.1856081116      -12.1989891348
 H        -2.5361961777       -4.8037904118       -6.9565766622
 H        -3.9471235018       -3.8805424186       -7.5464625052
 H        -2.1954218458       -1.8595666291       -7.6975007600
 H        -1.0043997094       -2.9689458159       -7.0763452006
 H        -3.9757113481       -0.6301201565       -2.7131461849
 H        -4.4304773322       -1.7891755634       -3.8244735435
 H        -5.2050455560        1.2232513117       -3.8266736093
 H        -6.4228524620        0.0001546516       -3.2611454334
 H        -8.9546360370        2.3917437101       -7.0673833829
 H        -9.8484204902        0.9624286169       -6.4753907880
 H        -8.8623382705        1.3688331776       -9.3582982374
 H       -10.3971157973        2.2254974510       -8.8472068434
 H       -10.2363241215       -3.7260601227      -10.1284095989
 H       -10.3602999612       -2.9893271112       -8.5208356799
 H        -7.7819970206       -4.2760573463       -9.4472366728
 H        -9.1463404472       -5.2368579912       -8.9237728452
 H       -10.0430409385       -3.1562932786       -5.1564365409
 H        -9.9149343768       -4.6626019688       -4.1672842272
 H       -12.3004540333       -3.9451806141       -3.8174361627
 H       -12.6924954317       -4.6699919139       -5.4332723499
 H       -12.6813320216        0.9144288610       -4.0124983395
 H       -11.3794061338       -0.1310019824       -4.3029589936
 H       -11.1059555550       -0.7559865034       -1.9418102849
 H       -12.6280860589       -0.0908855475       -1.4749052708
 H        -7.6274735230        3.7495268751       -2.6645638472
 H        -7.7921124551        4.2472566486       -1.0264510790
 H        -9.2923744536        4.1627938169       -1.9454551025
 H       -11.2321293942        2.0972109606        0.6790893768
 H       -10.2313648980        3.3296487258       -0.2689572929
 H        -9.2864634924        2.4922310989        1.1135517374
 H        -9.7986425150       -0.2166709585        0.6630677213
 H        -8.2840392484        0.1927074234        0.0367905801
 H        -9.3527158726       -0.6963936572       -0.9809290067
 H       -13.6142150890       -1.0581476856       -7.2984426207
 H       -12.8894284041        0.1346720678       -6.0899628424
 H       -14.5840668675       -0.0009517912       -6.1932844655
 H       -15.6131295953       -1.8683792390       -4.8478745121
 H       -14.7684127266       -3.2754237325       -4.2907657887
 H       -15.2257776305       -2.9409799373       -6.0073991849
 H        -9.1126310357       -6.8692298005       -7.6852325881
 H        -8.2553848075       -7.5002056188       -6.2145013991
 H        -7.2977826023       -6.8142146983       -7.3862791369
 H        -7.6121927311       -4.1171577561       -4.8471887491
 H        -6.6933974210       -5.6362053778       -5.2992435208
 H        -8.1890631110       -5.7058427017       -4.2829651444
 H       -11.9592482675       -0.7090996373      -11.3648042193
 H       -11.4972715990       -2.3093849358      -10.9332166579
 H       -10.7481627603       -1.5909020649      -12.3278611627
 H        -8.0494855305        0.3789393099      -10.8724421845
 H        -9.4824432935        1.0608219667      -11.4651517991
 H        -8.8104557760       -0.3417382932      -12.2693951574
 H        -9.4748837715       -0.3755538919       -5.3588006243
 H        -8.3612652943       -0.7102331496       -4.0274801055
 H        -8.1669930188       -1.5965778483       -5.6197277956
 H        -7.0242977542        2.3931903458       -5.0722292450
 H        -7.7635012436        1.4939135303       -3.8448391033
 H        -8.7123450334        2.2138619527       -5.0230608276
 H        -0.6258294130       -2.3052306029       -3.4287421415
 H        -2.2151639701       -2.6512440005       -3.1466845780
 H        -1.6976892720       -1.2247728542       -2.6251766834
 H        -1.0254052446        0.1691612594       -6.2600413183
 H         0.1923425226       -1.0798647753       -5.7807401004
 H        -0.3297092343        0.2021911429       -4.7364981988
 H        -3.9185625995       -6.5037634899       -8.5070120751
 H        -3.6347630731       -7.0678420546       -9.9849639717
 H        -5.1886514624       -6.3182001851       -9.6094884327
 H        -2.6580214855       -4.3596347108      -12.0525736220
 H        -3.4075824313       -6.0528875839      -12.0356287185
 H        -1.8145496475       -5.6758743311      -11.1878280187
 H        -2.7803554140        3.0097681409      -10.2813791455
 H        -2.9818413386        1.8487046546       -9.0468188404
 H        -4.4698602522        2.3398168522       -9.7982644471
 H        -5.3200987403        1.3077879463      -12.0346718853
 H        -4.0469622604        0.6248386194      -13.1513271269
 H        -4.0502294844        2.2524803055      -12.4405988731
 H         1.6505178882       -2.4678082307      -12.9924376387
 H         2.0863398338       -2.2102256267      -11.2775062050
 H         3.2714732542       -2.3720802166      -12.5825331566
 H         4.4419748854        0.2340026650      -12.0976016492
 H         3.8053967403       -0.7176647406      -10.6805347510
 H         3.4214936919        1.0335222854      -11.1882539358
 H         6.2877208498        3.1033581561      -16.9000461627
 H         7.4901640781        1.9430439502      -17.4681238972
 H         6.9471390108        2.1534427698      -15.7909869385
 H         6.0696663887        0.8499898919      -19.1475470436
 H         4.5595559681        1.7594174302      -18.7252709687
 H         4.3868972153        0.0210009365      -18.7872212124
 H        10.7357497817       -3.3664022303      -17.5580309757
 H        10.3117333761       -5.0239621633      -17.9486530443
 H         9.5603135211       -4.3589908804      -16.5813746395
 H         8.3293379957       -3.3792442556      -20.5854463292
 H         9.8852582226       -4.1305015584      -20.1122232070
 H         9.7449403835       -2.3271564378      -20.0813462225
 H         1.0863294216       -6.3386238071      -17.7121199008
 H         2.3306206921       -5.8506266263      -16.5110123971
 H         2.7662271415       -7.1753075251      -17.6278650278
 H         2.4436537118       -4.8913708844      -20.8730192671
 H         1.3579253714       -6.1385930820      -20.3162210570
 H         3.0672969403       -6.4783900007      -20.6031882740
 Na        3.1503842077       -1.6713729244      -16.9977736694
 Na       -6.0609741244       -1.5188333491       -8.1014657293
