232

 C        -0.0764203074       -4.6143574956      -18.5435166204
 C         1.3279920244       -4.1147085170      -18.4567019550
 O         1.5619410220       -2.9355283042      -18.2696936536
 C         2.5173161041       -5.2045580198      -18.7670068646
 C         3.9335628458       -4.3098411094      -18.5121542423
 O         3.9183494848       -3.5060332242      -17.5938560539
 C         4.9982953144       -4.5216022067      -19.4497693780
 C         6.1898991017       -3.6465318608      -19.1449968793
 C         7.4970614234       -4.2706564422      -18.4029298679
 O         7.5524303321       -5.1724338221      -17.5845685222
 C         8.8823940525       -3.3535779427      -18.6372920034
 C         8.4753341002       -1.9360449249      -17.9583529992
 O         8.5729891465       -0.8892834255      -18.6351676990
 C         8.1330570359       -1.9204060665      -16.5013894225
 C         7.5408591980       -0.5273400230      -16.2417778282
 C         6.0134943462       -0.5223518549      -16.5228146230
 O         5.3209133139       -1.5172339031      -16.4071596040
 C         5.5519726617        0.8667192137      -17.1265331456
 C         4.1811638080        1.1074838596      -16.4216466221
 O         3.1175424992        0.7797984086      -16.8911479052
 C         4.2293646109        1.8010725131      -15.0722101399
 C         2.9660552196        1.4425224195      -14.2579192305
 C         2.7379488210       -0.0116522748      -13.9300698283
 O         3.0026959507       -0.8968189114      -14.7385784868
 C         2.4188139148       -0.4409439955      -12.4740792560
 C         1.0961117986        0.2093615258      -12.0059985116
 O         0.8431917399        1.3925167929      -12.3973192740
 C         0.2359880710       -0.4584360668      -10.9607061705
 C        -0.9312870951        0.4610361063      -10.5351759731
 C        -2.1997404626        0.1670372002      -11.3150956763
 O        -2.2097495611       -0.6461068143      -12.2372436859
 C        -3.4830497137        0.7746446756      -10.9228780980
 C        -4.2087205239       -0.4585978087      -10.1382378189
 O        -3.9011111035       -0.6142755674       -8.9915902977
 C        -5.1082140583       -1.3268039180      -11.0488770513
 C        -4.3630382995       -2.6410251279      -11.3293360412
 C        -4.4613094899       -3.6625998653      -10.1688430942
 O        -5.2857400186       -3.5953231364       -9.2126344560
 C        -3.4907384475       -4.7987334798      -10.1334176570
 C        -2.2538656943       -4.3368832407       -9.0899532841
 O        -1.1317793160       -4.0941060567       -9.4951925242
 C        -2.5784594724       -4.1505400781       -7.5897378145
 C        -2.1150879730       -2.7620154804       -7.1289735673
 C        -2.4722635046       -2.5572015888       -5.6555588727
 O        -3.4214104418       -3.2468549905       -5.2682128109
 C        -1.8722154741       -1.4214586409       -4.8021425248
 C        -3.0429437105       -0.2724428348       -4.4786641870
 O        -2.9127640092        0.9242635228       -4.6774671103
 C        -4.2711261659       -0.9058015200       -3.8761868254
 C        -5.5597327317       -0.0966527765       -4.0454817925
 C        -6.2925006878       -0.0768344631       -5.4777899705
 O        -5.5741501007       -0.4430676539       -6.3342028602
 C        -7.7378152819        0.3994171217       -5.5666627874
 C        -8.2712693951        0.7852715776       -7.0889187122
 O        -7.5132209701        0.4177044297       -7.9603614089
 C        -9.7044060991        1.5705772643       -7.3365119002
 C       -10.0585840501        1.5886066663       -8.7739507244
 C       -10.6093371522        0.2197759908       -9.3063893254
 O       -11.6934649833       -0.1726430495       -8.9791183383
 C        -9.7834065333       -0.6759347172      -10.4248909616
 C        -9.0009434083       -1.9174009769       -9.7599725360
 O        -7.8052997116       -1.8178645060       -9.6523680207
 C        -9.7523839009       -3.1677227840       -9.2573966692
 C        -8.7217781903       -4.2701415772       -8.7955796434
 C        -8.1637891153       -4.2437144985       -7.4291261932
 O        -7.5186252312       -3.2353707824       -7.0634867848
 C        -8.3837097431       -5.3560272232       -6.2570598437
 C        -9.9269323939       -5.1670670302       -5.9202519061
 O       -10.6904418539       -5.6144805926       -6.7512196216
 C       -10.5627814688       -4.4829755362       -4.6837596288
 C       -11.9865535875       -4.0471136161       -4.8178834949
 C       -12.1991250328       -2.5858763950       -5.3331182484
 O       -11.3690844350       -2.0404131240       -6.0302486241
 C       -13.5746930340       -1.7150881973       -5.0538479339
 C       -13.3538932945       -1.0665593382       -3.5638416060
 O       -14.0509677758       -1.3936348261       -2.6323709329
 C       -12.3225525094        0.0289654893       -3.3728814002
 C       -11.8990757576        0.2220587740       -1.8914951425
 C       -11.1007067500        1.4984233217       -1.6512803246
 O       -11.4983294999        2.5450276423       -2.1322992453
 C        -9.8220545604        1.5292820926       -0.7832994867
 C        -8.4773269851        2.1053950894       -1.3684836430
 O        -7.5920799421        1.3379231610       -1.6941668611
 C        -8.5228279988        3.6143929267       -1.6919416027
 C       -10.2120386716        2.3490966067        0.4483827161
 C        -9.4434798780        0.0128989477       -0.3356735558
 C       -13.6380606132       -0.7000148253       -6.2056187889
 C       -14.8339521830       -2.5190564230       -5.0360164440
 C        -8.1773703327       -6.7899571648       -6.9275160057
 C        -7.4692135527       -5.0870980632       -5.0261036654
 C       -10.7794511101       -1.3229034493      -11.3858475510
 C        -8.6779515046        0.0737448475      -11.2286714786
 C        -8.6459703160       -0.7344476724       -4.9773150078
 C        -7.8217419206        1.8276045565       -4.7706282860
 C        -1.3760956459       -1.7951587774       -3.2926845958
 C        -0.6717094492       -0.6569845989       -5.4881068539
 C        -4.1068041476       -6.0889308420       -9.4448468532
 C        -2.8954614024       -5.1572111918      -11.4578192423
 C        -3.4395897555        1.9961853140       -9.8249527940
 C        -4.1907860134        1.3393397207      -12.1739219155
 C         2.4019377085       -1.9903521953      -12.3549673567
 C         3.5278373706        0.1231890895      -11.5604285781
 C         6.3457251403        2.0743630466      -16.8539808441
 C         5.4240687822        0.5715289433      -18.6632867264
 C         9.9876250797       -4.1387770000      -17.7939721152
 C         9.1684024093       -3.2257369660      -20.1612988665
 C         2.3738902615       -6.2798515058      -17.6572457975
 C         2.3488538719       -5.8830491176      -20.1536959223
 H        -0.0414118911       -5.6985350615      -18.5488811125
 H        -0.5257757269       -4.1641888132      -19.3329392585
 H        -0.4973769632       -4.4270016619      -17.5642611445
 H         4.6933499522       -4.3728836774      -20.4522610051
 H         5.2341434005       -5.5962935842      -19.2489346328
 H         5.9782219676       -2.8684926437      -18.3535445131
 H         6.5451946921       -3.2144652340      -20.0919582222
 H         8.8598991618       -2.2051372186      -15.7590592279
 H         7.2557452843       -2.6494540524      -16.4685401680
 H         8.1628329898        0.1759737220      -16.8500153181
 H         7.7152159449       -0.1608851245      -15.2475029225
 H         4.1747453855        2.8405337561      -15.0240706396
 H         5.0932799895        1.6514043051      -14.5030803751
 H         2.0534571558        1.7862069491      -14.7848561688
 H         2.8740484281        1.9983358220      -13.3336742306
 H         0.8567383556       -0.7453190988      -10.1410176914
 H        -0.1569508530       -1.3060730657      -11.4134171662
 H        -0.5687767898        1.4570322484      -10.9405607310
 H        -1.0840467809        0.4560289741       -9.4709332866
 H        -5.2551203539       -0.7892498615      -11.9892580753
 H        -6.1574786386       -1.5320760235      -10.6778760672
 H        -3.3076123402       -2.3649075420      -11.6235896928
 H        -4.8549651750       -3.0511058391      -12.2541011771
 H        -1.8895717286       -4.8781830569       -7.0983666662
 H        -3.6207314904       -4.2794473270       -7.2676985356
 H        -2.4240355801       -2.0458979651       -7.8672336822
 H        -1.0257306987       -2.7539988165       -7.0886766513
 H        -4.1866839087       -1.2655131776       -2.8205283816
 H        -4.3956663850       -1.8881095016       -4.3437334227
 H        -5.3737641577        0.8546652781       -3.6105359263
 H        -6.3605098386       -0.6165770120       -3.4824406695
 H        -9.6455934203        2.6126195041       -6.8533375938
 H       -10.3497891342        0.9564944291       -6.7744508445
 H        -9.2008371917        1.8239890926       -9.4203914237
 H       -10.8857842031        2.3346932496       -8.7347520482
 H       -10.3842627299       -3.5529774724       -9.9966784435
 H       -10.4289450686       -2.9911253009       -8.3956600950
 H        -7.8667388215       -4.2841088172       -9.4740528100
 H        -9.2652893760       -5.1771565332       -8.9822224408
 H       -10.0204507871       -3.6760642267       -4.2528895067
 H       -10.5597579102       -5.3277940819       -3.9965952467
 H       -12.6026851612       -4.3623036072       -3.9407509574
 H       -12.3684804806       -4.5677480699       -5.6896841885
 H       -12.6817237086        0.9708487582       -3.7172857332
 H       -11.4311202430       -0.0769837203       -3.9565911965
 H       -11.3357874190       -0.6809975180       -1.5792539699
 H       -12.7657585166        0.2411310325       -1.2393914830
 H        -7.6954015304        3.9980883129       -2.2790389213
 H        -8.4983875416        4.3147919307       -0.8611744861
 H        -9.5567668310        3.6710123246       -2.1511652310
 H       -10.8483947434        1.7744551888        1.0515895885
 H       -10.6870392934        3.2469747380        0.1716649748
 H        -9.2986330955        2.4650408196        0.9094490298
 H       -10.3141607483       -0.4931366727        0.0365343393
 H        -8.8275047994        0.1132925513        0.6087544905
 H        -8.8854854750       -0.5792427627       -1.0723225508
 H       -13.5008464947       -1.1451637262       -7.1137450417
 H       -13.0430915349        0.2419147937       -6.0514571887
 H       -14.7018908987       -0.4090025668       -6.2452014353
 H       -15.7969080296       -1.8826574574       -4.9555727075
 H       -14.6669881228       -3.3584007997       -4.2463192853
 H       -15.0182884978       -2.9581367256       -6.0635234266
 H        -8.3051149443       -6.8622686489       -7.9759131783
 H        -8.8706605053       -7.5479353246       -6.5017313597
 H        -7.1916864672       -7.1551410145       -6.6023901593
 H        -7.3413384927       -4.0605024080       -4.8807167449
 H        -6.5256357146       -5.5486570018       -5.3335436609
 H        -7.8906446609       -5.4337667248       -4.1061211854
 H       -11.1331896375       -0.5378994040      -12.0957555108
 H       -11.7014967763       -1.6495600667      -10.9125911601
 H       -10.2923145618       -2.1046599623      -11.9013896233
 H        -8.0711255345        0.7363941578      -10.6569478364
 H        -9.1467399826        0.8457647826      -11.9329757382
 H        -8.1050028575       -0.5907173750      -11.7816535922
 H        -9.7850751650       -0.5091281769       -5.1190508230
 H        -8.3160468400       -0.7322196125       -3.8764004256
 H        -8.2503775983       -1.5844404909       -5.4817991248
 H        -7.1054297684        2.5416992780       -5.1339980741
 H        -7.5047720423        1.6899927549       -3.7257458774
 H        -8.8572686344        2.1797327251       -4.6478075157
 H        -0.3293541185       -2.2518139447       -3.2735890390
 H        -2.0681765517       -2.6788183438       -2.8787965063
 H        -1.4778898925       -1.0894223685       -2.5272982758
 H        -0.7619208847       -0.4659416648       -6.5847867555
 H         0.2148333380       -1.1909146203       -5.3913837404
 H        -0.4064792746        0.3411005351       -5.0726709600
 H        -3.4984659597       -6.3278496562       -8.5307236872
 H        -4.1512771621       -7.0743657596      -10.0305062436
 H        -5.1481536091       -5.8400717627       -9.1271477222
 H        -2.2254165629       -4.4085647189      -11.6216623145
 H        -3.6920868935       -5.1286723170      -12.1709767644
 H        -2.4564827821       -6.1554307437      -11.4600641862
 H        -2.4582753951        2.2688657448       -9.6459509536
 H        -3.8122757765        1.8564286173       -8.7937781645
 H        -3.9212634158        2.8817855948      -10.2373268938
 H        -5.1612083854        1.7943645561      -11.8616029364
 H        -4.3094210055        0.5668913925      -12.8717013723
 H        -3.6584274376        2.1494142817      -12.7668102968
 H         1.6115792084       -2.4314181827      -12.9962500261
 H         2.1477031741       -2.2929214930      -11.3323193571
 H         3.3967826847       -2.3372642283      -12.7818035619
 H         4.5535279580       -0.0948887102      -11.9128216377
 H         3.2334928403       -0.4441923766      -10.6717682387
 H         3.6041093191        1.2214953017      -11.4481161420
 H         5.8961452799        2.9756089560      -17.1653456016
 H         7.3184909702        2.1116635518      -17.5097529117
 H         6.6539826040        2.2576072412      -15.8295197123
 H         6.3259948407        0.0884961458      -19.0017144344
 H         5.1234539050        1.4635795456      -19.2745127662
 H         4.6555965646       -0.1470920003      -18.6127645846
 H        10.8547435435       -4.3733813047      -18.5384233417
 H         9.5813295341       -5.0590213460      -17.4428655568
 H        10.3118071382       -3.6094867962      -16.8761827582
 H         8.4643930991       -3.6969491927      -20.7263825032
 H        10.2175235951       -3.6044729600      -20.3065220419
 H         9.0734043128       -2.1443924894      -20.3594643060
 H         1.4652142247       -6.9132040588      -17.6364676997
 H         2.4667646085       -5.6893583911      -16.7625323841
 H         3.3288519423       -6.8581786695      -17.6819364536
 H         2.2294188678       -5.1996828577      -20.9733235108
 H         1.4267623460       -6.4926322246      -20.1224156764
 H         3.2487968540       -6.4598822495      -20.3698724282
 Na        3.1224169367       -1.3598934934      -17.2103444165
 Na       -6.0023869265       -1.6100773942       -8.3167607118
