232

 C         0.0585519415       -4.8939446798      -18.3886520186
 C         1.4004740774       -4.0932862743      -18.4557811982
 O         1.3677679402       -2.9004809847      -18.3047677907
 C         2.6401580404       -5.0538367032      -18.7057049084
 C         4.0341452022       -4.2138120251      -18.6357263809
 O         4.2866933401       -3.4090239901      -17.7316788577
 C         5.0661458577       -4.6866934535      -19.5639361235
 C         6.2295812498       -3.7634068323      -19.5823558576
 C         7.4072338226       -4.2019168411      -18.6854867296
 O         7.1548455544       -4.8473803538      -17.6934295536
 C         8.8373577818       -3.4888715145      -18.8336656212
 C         8.4582157685       -2.0686276650      -18.1491069505
 O         8.2895514028       -1.0503097814      -18.8495318916
 C         8.2818354233       -1.9814009778      -16.5908169756
 C         7.6092149591       -0.6220772460      -16.1866945595
 C         6.1112782600       -0.4275408688      -16.5619674272
 O         5.3177923587       -1.3482855154      -16.3915828596
 C         5.6429690913        0.8984588386      -17.3634384012
 C         4.2549537226        1.2213778975      -16.7261607021
 O         3.2545771455        1.0207444759      -17.3681668276
 C         4.2253456303        1.7953597222      -15.2560354473
 C         2.9367406570        1.4526684949      -14.4816315804
 C         2.8330187060       -0.0399850739      -13.9980334979
 O         2.7946660551       -0.9768475337      -14.8141721917
 C         2.5378165705       -0.4162859813      -12.4417943160
 C         1.2165876551        0.2868755178      -11.9518622019
 O         1.0583892583        1.4746943197      -12.2993067280
 C         0.3220233182       -0.5425734375      -11.0604566965
 C        -0.8781648279        0.2543248579      -10.4187809104
 C        -2.1101223109        0.2837561390      -11.4014046446
 O        -2.1241109475       -0.2515851273      -12.4853670740
 C        -3.5447335492        0.8617079278      -10.8112134786
 C        -4.3391028233       -0.3336278654      -10.3155527103
 O        -4.2087423716       -0.5793307185       -9.1248474729
 C        -5.0498539299       -1.2930396039      -11.2056966009
 C        -4.3769840615       -2.6437535354      -11.3834923951
 C        -4.2974805103       -3.6125103928      -10.1077599413
 O        -4.8046501917       -3.3459254503       -9.0427127185
 C        -3.2011949492       -4.8586257719      -10.1583347185
 C        -2.0491218097       -4.3209834095       -9.2327526719
 O        -0.9366678246       -4.0160992877       -9.6738882975
 C        -2.3245763664       -4.2467952629       -7.6860312725
 C        -1.9256629769       -2.8593071976       -7.0749164072
 C        -2.3351134298       -2.7970387537       -5.6588489875
 O        -2.9105610814       -3.7363192245       -5.1470681809
 C        -1.9838733491       -1.4268894737       -4.7488780565
 C        -3.2694538972       -0.4726391999       -4.5712535933
 O        -3.0395498959        0.7298828101       -4.7513228596
 C        -4.5964671101       -0.9314618286       -4.0364093262
 C        -5.6333791530        0.2933930216       -4.1068100051
 C        -6.4424754720        0.0916995423       -5.4290002452
 O        -5.8355802998       -0.4473761891       -6.2511466793
 C        -7.9299198807        0.5658737701       -5.5329015860
 C        -8.3889958052        0.7166514947       -6.9847044232
 O        -7.6708727661        0.4295921041       -7.9530850360
 C        -9.8267253738        1.1809377711       -7.3482562810
 C       -10.1380192318        1.3974374478       -8.7990851250
 C       -10.7405586886        0.0886947540       -9.3797944814
 O       -11.7137297467       -0.4547436155       -8.8685667961
 C        -9.7359935275       -0.6539108352      -10.3792075060
 C        -9.0321995771       -1.8087997844       -9.5941831370
 O        -7.8368309715       -1.9403558997       -9.6323566864
 C        -9.9080200346       -2.7783709338       -8.8168914631
 C        -9.1274757114       -4.0906693467       -8.5216696785
 C        -8.2828862714       -4.1176305910       -7.2989630153
 O        -7.2328803180       -3.4539194271       -7.0690072669
 C        -8.5523587830       -5.1768478440       -6.1523125520
 C       -10.0983953341       -5.1477011937       -5.9252175999
 O       -10.8275948312       -5.6023064228       -6.8132589118
 C       -10.5015102435       -4.5506192071       -4.6268524614
 C       -11.9434830145       -4.0038915465       -4.5262636745
 C       -12.0162392424       -2.6510009369       -5.2259974731
 O       -11.2177773662       -2.1992813866       -6.0174641749
 C       -13.4134652517       -1.8493854219       -4.9406262331
 C       -13.2676181714       -1.2311817187       -3.5432254580
 O       -13.9905658895       -1.6317733326       -2.6645031723
 C       -12.5622342756        0.1014938329       -3.2904492820
 C       -12.0311464378        0.2679982126       -1.8416846999
 C       -11.1136889396        1.4389808919       -1.5832926295
 O       -11.1793190452        2.4029279054       -2.3418712715
 C        -9.9710299063        1.4046101872       -0.4143207423
 C        -8.7700656316        2.1089786245       -1.1753797944
 O        -7.8708957072        1.3856983870       -1.5405868378
 C        -8.7265737211        3.5614275224       -1.4041401865
 C       -10.3446801040        2.3546676764        0.8517409592
 C        -9.5197746429       -0.0079321752        0.0553807998
 C       -13.5469742234       -0.7127444823       -5.9202643555
 C       -14.5871809859       -2.8445846159       -4.9013956646
 C        -8.2429439760       -6.5398750019       -6.7468517910
 C        -7.7259679367       -4.7667203917       -4.8601098172
 C       -10.5705149678       -1.2361483316      -11.5990407734
 C        -8.5874943321        0.1989221053      -10.9754150858
 C        -8.8692855289       -0.5920274483       -4.8851265426
 C        -8.0945859282        1.9398456047       -4.8482105300
 C        -1.4742684984       -2.0865846910       -3.3785420489
 C        -0.9088816281       -0.4931529254       -5.4398459850
 C        -3.8101421700       -6.0476957945       -9.4689526808
 C        -2.8223795749       -5.2676795442      -11.6447887119
 C        -3.2389818738        1.9264725422       -9.7949649256
 C        -4.3811962702        1.5669537619      -11.9463867022
 C         2.4272115305       -1.9589883651      -12.2647306013
 C         3.6853800323        0.0264955899      -11.5035113056
 C         6.5364836987        2.0878597421      -17.3080334961
 C         5.3876304291        0.5951436763      -18.9247016028
 C        10.0957912093       -4.1444123876      -18.0714155648
 C         9.2754692707       -3.3063678368      -20.3070050117
 C         2.7762178548       -6.0703198298      -17.4817201237
 C         2.3962978245       -5.5855701834      -20.0800623818
 H         0.2381709753       -5.9203404667      -17.9876169001
 H        -0.3107453570       -4.8746872904      -19.4095539927
 H        -0.6234425975       -4.4983833782      -17.6157816679
 H         4.7902827093       -4.6108762289      -20.6700551855
 H         5.2260406122       -5.7513243099      -19.3643118619
 H         5.9577400953       -2.8173488331      -19.1204645622
 H         6.4771769843       -3.6500235988      -20.6403352490
 H         9.2751715021       -2.0195379550      -16.1986735109
 H         7.6805737814       -2.7285612589      -16.0199679994
 H         8.1633598262        0.3016412478      -16.4648486399
 H         7.7032078753       -0.5274958225      -15.1121477625
 H         4.3834719499        2.9283477136      -15.2258150026
 H         5.1168288529        1.5370776924      -14.5889208169
 H         2.0251004775        1.7724037104      -15.0647766374
 H         2.7177776689        1.9892054171      -13.6164920853
 H         0.9575259924       -1.0530268857      -10.2681833793
 H        -0.1342914719       -1.2981911446      -11.7739637523
 H        -0.4638883139        1.2393370148      -10.3771532733
 H        -1.1969725447       -0.1642091868       -9.4744728930
 H        -5.2117364782       -0.8186290041      -12.1531209949
 H        -6.0338256530       -1.4739114506      -10.8083521658
 H        -3.4098580927       -2.4984177537      -11.7970922512
 H        -4.9913596009       -3.1220285314      -12.0627197634
 H        -1.7249494196       -4.9502272856       -7.1253105585
 H        -3.3936469601       -4.4890401445       -7.4713082360
 H        -2.3253041400       -1.9879179954       -7.6696254047
 H        -0.8710069531       -2.8218762465       -7.2078934764
 H        -4.5137263071       -1.3298272525       -3.0511104964
 H        -5.0968906678       -1.7879089605       -4.5097508339
 H        -5.1498453495        1.3229226643       -4.0784305972
 H        -6.3505222897        0.1528997472       -3.3343718424
 H       -10.0989442298        2.0552799760       -6.6740430098
 H       -10.4460787779        0.3793643056       -6.9378022258
 H        -9.2608981923        1.8056910210       -9.3735130937
 H       -10.8934179176        2.1423238496       -8.7596310889
 H       -10.8540533901       -3.0191689500       -9.3095218182
 H       -10.2518917727       -2.2132281014       -7.9197581911
 H        -8.6077278836       -4.2942816969       -9.4479084958
 H        -9.8071059613       -4.8913420145       -8.4039647045
 H        -9.8218692566       -3.6966580265       -4.4460815886
 H       -10.5071383072       -5.3098544809       -3.8228485118
 H       -12.1736674727       -3.8972777602       -3.4681763846
 H       -12.7208474565       -4.7670465813       -4.8819873105
 H       -13.2535123879        0.9399244702       -3.5401351282
 H       -11.6457247841        0.2331664336       -3.9351408780
 H       -11.6048619225       -0.6744606443       -1.5024559541
 H       -12.8874387139        0.4342733808       -1.1568095055
 H        -7.7079840009        3.8615419990       -1.4054033656
 H        -9.1189627195        4.2442532418       -0.6602040077
 H        -9.2552968324        3.6784444408       -2.3710953366
 H       -11.2469752390        1.7968832129        1.2928651663
 H       -10.8420603560        3.3444174713        0.5789059082
 H        -9.5727398302        2.1061191001        1.6192933591
 H       -10.0955156004       -0.4615371099        0.8787886469
 H        -8.4772454689        0.0926359757        0.3049452485
 H        -9.4993092806       -0.6586584506       -0.7779366247
 H       -13.9921107928       -1.0874435271       -6.7974161766
 H       -12.5560104288       -0.4039979823       -6.2766209071
 H       -14.1992690905        0.1555948576       -5.6204065852
 H       -15.4996873460       -2.2773564310       -4.7940230476
 H       -14.4808428607       -3.4665400439       -4.0146253524
 H       -14.5917510590       -3.6091067604       -5.6330890833
 H        -8.5630432911       -6.6720004033       -7.7262751687
 H        -8.6778428461       -7.3700641654       -6.1748355976
 H        -7.1096030354       -6.6816202686       -6.8210116263
 H        -8.2579439644       -4.0141807929       -4.2606048237
 H        -6.6948323348       -4.3735154676       -5.1004320417
 H        -7.7736874109       -5.5708293457       -4.1584832575
 H       -10.5564950180       -0.5691550134      -12.4474536919
 H       -11.6178248283       -1.2967562647      -11.3377101928
 H       -10.1848427946       -2.2223045368      -11.9190470723
 H        -7.8105525375        0.3853140263      -10.2653875126
 H        -8.8130527523        1.2549265693      -11.3944901877
 H        -8.1813798762       -0.3620906336      -11.7644816322
 H        -9.8334943915       -0.0797371893       -4.9182345594
 H        -8.6501560002       -0.5977140406       -3.8315809515
 H        -8.8217437516       -1.4199174912       -5.4908490917
 H        -7.6407159027        2.6776470013       -5.4137308828
 H        -7.7694379061        2.0689265870       -3.8085630589
 H        -9.1584719840        2.0691292672       -4.8119773830
 H        -0.9633285782       -2.9948779122       -3.5595989488
 H        -2.2646956875       -2.3749627470       -2.6879170054
 H        -0.8412202966       -1.5105078183       -2.8845197110
 H        -1.4654775697        0.1714345295       -6.1099064392
 H        -0.0563686082       -0.8387411660       -5.9979299844
 H        -0.4755688560        0.1805986208       -4.6413238565
 H        -3.2787172095       -6.9129112942       -9.6798226089
 H        -4.8528947361       -6.0903685212       -9.6599762535
 H        -3.8265520519       -5.9601429197       -8.4208218124
 H        -1.8990903542       -4.8225183654      -11.9539421821
 H        -3.7243829159       -5.0250326988      -12.3134324230
 H        -2.8622429462       -6.3824030265      -11.6511819130
 H        -2.3719940634        1.7830461930       -9.1786042953
 H        -4.1373576220        2.0712273504       -9.0608613377
 H        -3.0499751534        2.9034195603      -10.2324372819
 H        -5.4263510042        1.6224286112      -11.6485368532
 H        -4.3549454355        1.1417892883      -12.9074753188
 H        -4.0171321113        2.6124354762      -12.1208150500
 H         1.5551473678       -2.2731563175      -12.7466048125
 H         2.2189389667       -2.1967258749      -11.2486353563
 H         3.3305841830       -2.5119703218      -12.5479923096
 H         4.4809971536       -0.6800695953      -11.6981637297
 H         3.3708416463        0.0817920422      -10.4685627854
 H         4.0472895001        1.0507955471      -11.7437492290
 H         6.1346680942        2.9266484292      -17.8015306277
 H         7.5055326531        1.9869367346      -17.8643778601
 H         6.9274473897        2.3363060796      -16.3251540898
 H         6.3852104708        0.4497021143      -19.4231181712
 H         4.9276920440        1.5150389533      -19.2883097160
 H         4.8920712987       -0.3890338150      -19.0180335899
 H        10.1830963374       -5.2418135174      -18.3006195108
 H        10.0592553690       -4.0629582698      -17.0078646722
 H        10.9655077302       -3.7143761398      -18.5290421344
 H         9.7973168510       -4.1619698161      -20.4858988805
 H         9.9393328299       -2.3664829461      -20.2962415710
 H         8.4845830857       -3.2728221506      -21.0854856652
 H         2.0010042943       -6.7875844520      -17.3306517238
 H         2.9685447214       -5.4233722189      -16.6185476578
 H         3.6448232686       -6.7677895043      -17.7619520459
 H         2.3983390453       -4.7767927732      -20.7807504822
 H         1.3894271937       -5.9878503973      -20.1826008912
 H         3.1991920967       -6.2699362867      -20.3353430168
 Na        2.9637921817       -1.5424666218      -17.2022908741
 Na       -6.1679465491       -1.6045905431       -8.1155870895
