232

 C       -17.3090006398       -5.4092881731       -4.2738886060
 C       -17.8654415732       -6.5319671779       -3.4080348718
 O       -17.2444176291       -7.5595290346       -3.0609183255
 C       -19.4028351214       -6.4692561101       -3.0416311797
 C       -19.5007823317       -6.7921189491       -1.4640405919
 O       -19.5523422884       -7.9635680801       -1.0496281705
 C       -19.4173078937       -5.5902984740       -0.5134862886
 C       -18.3426881268       -5.7626142894        0.6058928246
 C       -16.9366250106       -5.9670955138       -0.0079060795
 O       -16.6042748753       -5.6151975057       -1.1038224398
 C       -15.7417638449       -6.7217323734        0.8887666662
 C       -15.6655037236       -8.1261803386        0.2640164904
 O       -16.5136775165       -8.9777482972        0.5627607754
 C       -14.4491251089       -8.5766036346       -0.4984287273
 C       -14.4274157158      -10.1580250327       -0.7423033289
 C       -14.6546952232      -10.5057842242       -2.1564457938
 O       -15.7643379627      -10.5974016897       -2.6125059926
 C       -13.3642518644      -10.8604271391       -3.1402559881
 C       -12.8298473228       -9.5470661606       -3.6923701776
 O       -13.3532231888       -8.4627833816       -3.4671392538
 C       -11.6349698384       -9.5515473829       -4.5706592796
 C       -12.0162563940       -8.9506125112       -5.9472905717
 C       -10.8258995554       -8.9342362435       -7.0229896055
 O        -9.7695399411       -9.4688038094       -6.7701026323
 C       -10.9436504975       -7.9241956535       -8.3322538089
 C       -10.8072385311       -6.4801627662       -7.6890769446
 O       -10.5511401636       -6.2604154557       -6.5168714425
 C       -10.9998209346       -5.1738672501       -8.5217409267
 C        -9.6579472330       -4.4132460660       -8.6458129453
 C        -9.6844539441       -3.2691324795       -9.7418954087
 O       -10.5203514340       -3.3823045800      -10.6668093379
 C        -8.4956175733       -2.2447728430       -9.7902693835
 C        -7.3874814357       -2.7318738501      -10.6859795987
 O        -7.1809528851       -3.9462126074      -10.7799958276
 C        -6.5716831634       -1.6824167682      -11.5124547095
 C        -5.2171884049       -2.0878072241      -11.9783549343
 C        -4.8655744870       -1.1344829670      -13.0874259423
 O        -5.3055348820        0.0013051111      -13.0362847314
 C        -3.5977404092       -1.5195380322      -14.0108368508
 C        -2.4359325751       -1.9208321718      -12.9823310387
 O        -2.3024133373       -1.2543966378      -11.9745322052
 C        -1.2671303945       -2.9924715621      -13.2709798390
 C        -0.2821095527       -3.1278758433      -12.1328724377
 C         0.6916159673       -1.9603962156      -11.8425068057
 O         1.0814792634       -1.4165877168      -12.8973555774
 C         1.1900414829       -1.4617163631      -10.4007948522
 C         2.3646524608       -0.4391297542      -10.5123820918
 O         3.4558640005       -0.9302511713      -10.8108697260
 C         2.0942803667        1.1036031183      -10.2919674680
 C         3.4596719325        1.8812930477       -9.9884987126
 C         3.1946012590        3.2547139176       -9.4837724034
 O         2.0358966617        3.6334185323       -9.3143027354
 C         4.4360261954        4.2216813778       -9.6972433513
 C         4.4363491943        4.4304134626      -11.2671598301
 O         5.3391912503        3.8887124776      -11.8663613010
 C         3.3470257084        5.2723905123      -11.8440570615
 C         4.0417521804        6.6249804126      -12.1314873338
 C         4.8644561865        6.8879164993      -13.5795813271
 O         4.8169346674        6.0690579935      -14.4998691638
 C         5.5718570761        8.2525503644      -13.8036277406
 C         6.9381319374        7.9055189750      -14.5418273809
 O         7.1808488300        8.3392309214      -15.6072571612
 C         7.8666283319        6.8346805334      -13.8830015195
 C         8.8801128195        6.0846579137      -14.8222134275
 C         8.2683638020        5.4010005951      -16.0532252501
 O         7.2437880404        4.6428176179      -16.0036336894
 C         8.8495611580        5.7361670180      -17.4430452963
 C         9.8253737365        4.5647280967      -17.9719111804
 O        10.3400592366        3.8473384274      -17.1252992231
 C        10.2391731107        4.6034518182      -19.4642043684
 C        10.2604582026        3.0723883018      -19.9719639280
 C         8.9447687786        2.3825623353      -19.5572945804
 O         8.0247530222        3.0712627445      -19.1934553800
 C         8.8278834442        0.8348883717      -19.6388653768
 C         8.8800276395        0.3953307976      -18.1934774182
 O         9.4230207011       -0.6943094672      -17.9504565995
 C         7.8512468799        0.9330252054      -17.2553977999
 C         8.2893038445        0.4234553085      -15.8887914254
 C         7.3258647279        0.9731748023      -14.7997202678
 O         7.4940313308        2.1436810991      -14.3595075942
 C         6.0887865180        0.1403437605      -14.3150109079
 C         4.6795927177        0.6787079713      -14.7262758725
 O         4.5890046266        1.7976751567      -15.1989205438
 C         3.4409796332       -0.2100185433      -14.3983489733
 C         6.1842064555       -1.4044617676      -14.5105150474
 C         6.1029277650        0.4133960330      -12.6477515272
 C         7.3488496253        0.6472909681      -20.2053005152
 C         9.9913728430        0.1368686996      -20.4361563031
 C         7.7254548260        6.0285322924      -18.5024858242
 C         9.7288322840        7.0799650571      -17.4539840672
 C         4.8348680290        9.1099552028      -14.8847155138
 C         5.9083014294        9.1055335689      -12.4337952124
 C         4.1253035343        5.5611504246       -8.8973029992
 C         5.6917834742        3.6102701915       -9.1718764227
 C        -0.0906037615       -0.9719265940       -9.6341080872
 C         1.7747354230       -2.7122116432       -9.6739367680
 C        -4.2337387254       -2.6919983729      -14.8925077552
 C        -3.0564783182       -0.4206713130      -14.8743900408
 C        -9.1812144710       -0.9279257058      -10.2844748353
 C        -7.8945049719       -2.0197778912       -8.3639363126
 C        -9.6276340141       -8.3353945747       -9.0540373579
 C       -12.1763695208       -8.0071175024       -9.1204909746
 C       -12.2824128202      -11.5732255853       -2.2788596394
 C       -13.7114042623      -11.8855228808       -4.2407683418
 C       -14.4801645348       -5.8909993619        0.6568432003
 C       -16.1259669967       -7.0311931981        2.4076376269
 C       -20.0149145891       -5.1091641381       -3.4143781280
 C       -19.9744111538       -7.5710093318       -3.9061836859
 H       -17.2658210943       -4.5983397889       -3.6175034154
 H       -17.9604182338       -5.1288648202       -5.1476506536
 H       -16.2991400666       -5.6987428684       -4.6193489275
 H       -20.3027555752       -5.5215315010        0.1178277599
 H       -19.2624241540       -4.6255346347       -1.0435589805
 H       -18.5839621632       -6.6410437751        1.2489287922
 H       -18.2549801912       -4.8869667126        1.2606517050
 H       -13.6677949170       -8.3887259586        0.2188942846
 H       -14.3005161198       -7.9758875284       -1.4260166778
 H       -15.2294076944      -10.6626044354       -0.2515065215
 H       -13.6045636855      -10.6925673006       -0.4267553406
 H       -11.1810175727      -10.4923177347       -4.7830581103
 H       -10.8968244119       -8.9353283647       -4.0262395589
 H       -12.2087346720       -7.8707062345       -5.8969052321
 H       -12.9397276598       -9.3403894085       -6.3342807382
 H       -11.6957484429       -4.6735036231       -7.8214894125
 H       -11.4536938155       -5.2285155375       -9.5144326630
 H        -8.9257783711       -5.0876326389       -9.0447439467
 H        -9.4315087282       -3.9936146139       -7.6171665250
 H        -6.3765517697       -0.8279377769      -10.9373877509
 H        -7.1981984940       -1.5196862690      -12.4461646809
 H        -5.1280906760       -3.0479940696      -12.4270667208
 H        -4.4292698881       -1.9830319299      -11.0976728640
 H        -0.9009275385       -2.4343028583      -14.1795531540
 H        -1.5969203820       -3.9548620384      -13.6252866213
 H         0.3368123392       -4.0266252033      -12.2151289685
 H        -0.8620893746       -3.2826670531      -11.1827051441
 H         1.3001411589        1.2202586827       -9.4589744393
 H         1.6917467311        1.5960706268      -11.1674051089
 H         4.2404757489        1.9234508652      -10.7201234671
 H         3.8426258622        1.3577592470       -9.1122238584
 H         2.3395566209        5.6036315476      -11.3324229879
 H         3.0652770555        4.8159755692      -12.8044198051
 H         4.8093654057        6.7805372880      -11.3790580410
 H         3.4711106800        7.5287086714      -12.2079317548
 H         7.1254962978        6.0371672995      -13.5814630038
 H         8.3616358386        7.2207448324      -12.9846171025
 H         9.3542185043        5.2941530536      -14.2307542475
 H         9.7130143126        6.7834958444      -15.1407846787
 H        11.1787643508        5.0776205034      -19.5436051708
 H         9.5771340628        5.2262654445      -20.0770055477
 H        10.9979759315        2.4677837879      -19.5175385512
 H        10.3944014739        3.1224685267      -21.1160608709
 H         6.8134256167        0.6236896079      -17.4705153947
 H         7.7195168546        2.0549144830      -17.3077440166
 H         9.3613740745        0.8488403345      -15.8204477291
 H         8.4249984984       -0.7056005384      -15.8477646653
 H         3.3138842413       -0.6874736170      -15.3161548457
 H         2.6052127451        0.5500243533      -14.1287950037
 H         3.3759290821       -1.0451436520      -13.6479096074
 H         5.2577356411       -1.9286645290      -14.3089333406
 H         6.9660950461       -1.7708315011      -13.8363178894
 H         6.2393311573       -1.5193615569      -15.5596070609
 H         5.2572544488        0.1485958801      -12.0302896337
 H         6.2624407128        1.4579209507      -12.3116025655
 H         6.8313365048       -0.2765797326      -12.2524693932
 H         7.1623276493       -0.4220912276      -20.3390093748
 H         7.2842610039        1.2327104915      -21.1521879177
 H         6.4876000741        1.0391887174      -19.6179430721
 H         9.6393203476       -0.5829721517      -21.1826238518
 H        10.5383469323       -0.4399703431      -19.6927263293
 H        10.6748527317        0.9096040207      -20.7309040038
 H         7.1644108526        6.9422526379      -18.0894555924
 H         6.9188070414        5.2936733905      -18.5363188607
 H         8.1004170314        6.2910204555      -19.4938333270
 H        10.7102693645        7.0445395372      -17.0875930988
 H         9.1760012185        7.8493941528      -16.7787518980
 H         9.8938347748        7.4040726237      -18.4517204054
 H         5.4555396134       10.0146003277      -14.9168261973
 H         3.7599384017        9.3411381673      -14.7059287872
 H         5.0335898975        8.7588943503      -15.8724011981
 H         6.3896658427       10.0767581051      -12.6723985575
 H         6.6618366392        8.5504392334      -11.8364466667
 H         4.9929636475        9.2153900035      -11.7609365729
 H         4.3354084556        5.2293989143       -7.8308440018
 H         3.0696915188        5.7039247250       -8.9696988246
 H         4.7206640043        6.3861021698       -9.3056278749
 H         6.6651537837        3.9868041055       -9.5688114217
 H         5.8111829749        2.5994523153       -9.5190686496
 H         5.7984380665        3.6445459308       -8.0787955544
 H        -0.7338864517       -0.3784105732      -10.1528624190
 H         0.1625918123       -0.4843377894       -8.6991754102
 H        -0.6386327050       -1.8879354314       -9.3864700255
 H         1.0124606225       -3.5287974839       -9.4102469535
 H         2.3409597967       -2.4059125920       -8.7105146065
 H         2.4423252839       -3.2751583299      -10.3728015039
 H        -4.6459883322       -3.4480542877      -14.2472118907
 H        -3.4861649439       -3.2401582942      -15.4678691670
 H        -5.0514014195       -2.3706457063      -15.4925269053
 H        -2.1085177267       -0.7521741832      -15.1686316396
 H        -3.0243656066        0.5774075619      -14.4102460868
 H        -3.6945572234       -0.2954965352      -15.7243061986
 H        -9.6825250432       -0.5191786408       -9.4334582834
 H        -9.7959630936       -1.2566348162      -11.1950087857
 H        -8.3869449522       -0.2232082439      -10.4720088806
 H        -8.7384619254       -1.6524616250       -7.7437337082
 H        -7.1956192582       -1.1954997338       -8.3957300659
 H        -7.5003426427       -2.9270759921       -7.9499927824
 H        -9.4629782557       -9.4015797237       -8.9340062808
 H        -8.7067627947       -7.8071338292       -8.7766084318
 H        -9.6975180481       -8.1403933394      -10.0894048725
 H       -12.1662856042       -8.8758735942       -9.7100484727
 H       -12.1547738436       -7.3178301118       -9.9120871731
 H       -13.0844418216       -7.9242858922       -8.5008510703
 H       -11.5859086916      -10.8282703074       -1.8605583644
 H       -11.8222709823      -12.3152688181       -2.9554992978
 H       -12.7629549162      -12.1653142139       -1.5215102412
 H       -14.5705274448      -11.3766678339       -4.7533505026
 H       -14.2175690807      -12.7501727154       -3.7901725773
 H       -12.8926263253      -12.1719871772       -4.8352587008
 H       -14.3507416410       -5.9419173102       -0.3903126728
 H       -13.6479573123       -6.2772325001        1.3064543067
 H       -14.6753206986       -4.8354192800        0.9342944218
 H       -16.7509600145       -8.0268436111        2.4372820448
 H       -16.6830803384       -6.2055854686        2.8210326402
 H       -15.1433450795       -7.2164540611        2.8591358443
 H       -19.4739760337       -4.2295273860       -3.1682249788
 H       -21.0041433071       -4.9687852811       -2.9110871983
 H       -20.2726372692       -5.1692920842       -4.5501868549
 H       -21.0704976285       -7.6751430658       -3.9790589539
 H       -19.4963884263       -8.4985095246       -3.8033794046
 H       -19.6264348181       -7.3560885068       -4.9037657233
 Na      -17.6189750676       -9.4552222742       -1.4913454443
 Na        5.8020276561        3.6396931083      -14.2303818689
