232

 C         0.1333303825       -4.3715414915      -18.5026915378
 C         1.6437596113       -4.0914697796      -18.1480355507
 O         1.8602225694       -3.2084586924      -17.2915492475
 C         2.7951938819       -4.9405558245      -18.6573421885
 C         4.0142573026       -4.1516190239      -19.2612352827
 O         4.1915057960       -3.0037016270      -18.9339644727
 C         5.0369045389       -4.7133853852      -20.3801616033
 C         6.4446692494       -4.0614260325      -20.3030579880
 C         7.2511710479       -4.1472125234      -18.9229381252
 O         7.0172026326       -4.9043356169      -18.0141430034
 C         8.6758286126       -3.4121052852      -18.9011763502
 C         8.3929242676       -2.0049187431      -18.2841127122
 O         8.0940969777       -1.1060276620      -19.0292386222
 C         8.5233392328       -1.8185353075      -16.8666672677
 C         7.9098281412       -0.3784169479      -16.5999243101
 C         6.4149726809       -0.2836470646      -16.8844240577
 O         5.7177892125       -1.2058354014      -16.4908750842
 C         5.6791312350        0.8833245124      -17.5451140924
 C         4.2316457137        0.9459582030      -16.8236705406
 O         3.1862381663        0.7239295390      -17.4531024774
 C         4.2031405665        1.2601088179      -15.3277525070
 C         2.7965707605        1.2251389734      -14.8015820478
 C         2.5643682556       -0.2432295709      -14.2799052661
 O         2.2460095041       -1.1299651928      -14.9996665521
 C         2.6828598181       -0.3664349656      -12.6690253676
 C         1.4667554635        0.3544974366      -11.9350442267
 O         1.3077196152        1.5228098067      -11.9908754433
 C         0.2659358450       -0.5345948611      -11.4253738991
 C        -0.8845014847        0.2672644302      -10.6632451037
 C        -2.0709517843        0.4523812569      -11.5479373906
 O        -2.0369466560        0.1237037135      -12.7295803115
 C        -3.3726641770        1.0301278755      -10.9737467145
 C        -4.2848610264       -0.1811677011      -10.3526455022
 O        -4.6249648338       -0.1784942347       -9.1828239780
 C        -4.7067190184       -1.2738331888      -11.3868853130
 C        -3.6504903424       -2.4114601596      -11.3831205348
 C        -3.8999409410       -3.4389195335      -10.3288275206
 O        -4.8943421438       -3.3074559513       -9.5982985661
 C        -2.9612448618       -4.6781408655      -10.2179047874
 C        -1.7813612445       -4.1550250987       -9.1352219797
 O        -0.8589486789       -3.4772409868       -9.4719376272
 C        -2.0644627406       -4.2494824817       -7.5727682202
 C        -2.0572077185       -2.7817743611       -7.0977588995
 C        -2.4094988948       -2.7236916137       -5.5909721551
 O        -2.9320707266       -3.6540607646       -4.9906774613
 C        -2.0991685474       -1.4524104884       -4.7108964434
 C        -3.3764351505       -0.5081973491       -4.6968201270
 O        -3.2866541564        0.3631081461       -5.5146492965
 C        -4.4925632795       -0.8686412309       -3.8682646615
 C        -5.7758806735       -0.0567575064       -3.9753085263
 C        -6.4694217582       -0.2113894694       -5.3371564538
 O        -5.9013330769       -0.7099416569       -6.3537414406
 C        -7.8721952192        0.4298329232       -5.3767308978
 C        -8.4757665047        0.4561501100       -6.8110499433
 O        -7.9708143784        0.1619287361       -7.8745059122
 C        -9.9396761362        1.0780220859       -6.9776080414
 C       -10.2894357505        1.3033825338       -8.4712105123
 C       -10.7686834544        0.0253243280       -9.3394854833
 O       -11.8584792446       -0.3995028990       -9.1199350604
 C        -9.8971445309       -0.6236565735      -10.4677218298
 C        -9.0255710045       -1.8347634536       -9.8083728409
 O        -7.9061985159       -2.0056009880      -10.2669849476
 C        -9.6050862137       -2.5274391305       -8.6548510372
 C        -9.1489160761       -3.9863829135       -8.3016551431
 C        -8.3139414603       -3.9487634824       -6.9293645572
 O        -7.5753105883       -3.0463618028       -6.6217919124
 C        -8.6754073728       -5.0616712199       -5.9138553291
 C       -10.2610706015       -5.0517440245       -5.4958175505
 O       -11.0923166849       -5.4362751393       -6.2613220137
 C       -10.5785112987       -4.5920287903       -4.1089113814
 C       -12.0500324121       -4.0516581767       -4.1351591775
 C       -12.1427807220       -2.7559023766       -4.7696728541
 O       -11.1161641740       -2.2002581108       -5.1204116554
 C       -13.5183677313       -1.9497755605       -4.7590253532
 C       -13.3708597158       -1.4294721848       -3.3035039423
 O       -13.6648243780       -2.2129286387       -2.4371449609
 C       -12.6808593547       -0.0963559665       -3.0220072582
 C       -11.8655301993       -0.0205505278       -1.7417504254
 C       -11.0636982226        1.2622202759       -1.6273373325
 O       -11.1565888687        2.0959027199       -2.4859070187
 C       -10.2459425909        1.4861108688       -0.2597850140
 C        -8.9308068709        2.0290933489       -0.8040194527
 O        -8.2405460928        1.3402362217       -1.5575820976
 C        -8.4360019074        3.3759447207       -0.3802157247
 C       -11.0732980862        2.4059589434        0.7238858569
 C        -9.9738717925        0.1039386707        0.4409231071
 C       -13.6481305685       -0.8765043124       -5.8811654236
 C       -14.7022123809       -2.8742295495       -5.0729668231
 C        -8.5631117627       -6.5358619034       -6.6373753810
 C        -7.6534752533       -5.2051463342       -4.7374198963
 C       -10.7914903258       -1.3137669316      -11.4777910452
 C        -8.8894487954        0.4267353461      -10.9867074186
 C        -8.8648606989       -0.3903774588       -4.3857332506
 C        -7.6984640871        1.9102353458       -5.0113172045
 C        -1.6976842788       -1.9858294848       -3.2425818486
 C        -0.8202203134       -0.5808988030       -5.1886953372
 C        -3.6646261458       -5.9230942412       -9.4965539837
 C        -2.2627241307       -5.1334300948      -11.5384231259
 C        -3.0085878544        1.9285921071       -9.7115388602
 C        -4.1888016713        1.8453418149      -11.9422159430
 C         2.8400509106       -1.8895730391      -12.3596889841
 C         3.9816554114        0.3985395926      -12.1447324992
 C         6.1755645152        2.2780002689      -17.4273373722
 C         5.4483358492        0.4741721809      -19.0584257646
 C         9.6406717459       -4.2428583930      -18.0194424734
 C         9.1837040175       -3.2294678125      -20.3582911090
 C         3.2265374740       -5.6901201386      -17.3743432268
 C         2.2521953905       -5.9615342135      -19.7392468658
 H         0.1092555467       -5.4071596357      -18.0755779260
 H        -0.0877550898       -4.4079457167      -19.5852271790
 H        -0.5810124786       -3.7191952602      -17.9376933741
 H         4.5961488934       -4.6181308616      -21.3524358406
 H         5.2666994315       -5.8368653007      -20.2623200326
 H         6.1632254862       -2.9772807079      -20.3077186202
 H         7.1029926626       -4.2952721394      -21.1016358721
 H         9.5462672356       -1.8110468665      -16.5087840455
 H         8.0856220379       -2.6885710514      -16.3478316880
 H         8.5034293484        0.2216485073      -17.3124434064
 H         8.1195084644        0.0893863280      -15.6266105696
 H         4.6070542317        2.1999431383      -14.8606571548
 H         4.7874677308        0.4123802298      -14.8254753621
 H         2.1242962930        1.5081286981      -15.5983922064
 H         2.6479912628        1.9704053409      -13.9544206925
 H         0.5465876615       -1.4111550665      -10.7440024115
 H        -0.2407611305       -0.9823969164      -12.3298737553
 H        -0.4415444610        1.1682305502      -10.1957615631
 H        -1.1714848889       -0.3886405536       -9.8716629905
 H        -4.7807666768       -0.8697985959      -12.3646455431
 H        -5.6962799904       -1.6032470961      -11.0594946987
 H        -2.7115465526       -1.9668727180      -11.2001323172
 H        -3.5772943991       -2.8107480167      -12.3561771039
 H        -1.3047301538       -4.8758044499       -7.0253071662
 H        -2.9940339199       -4.6849246874       -7.2495413459
 H        -2.7637214501       -2.2336672201       -7.6886687547
 H        -1.0355208974       -2.3465366284       -7.2678717479
 H        -4.2193874386       -0.6958880105       -2.8016268252
 H        -4.7380789991       -1.8976104352       -3.9307243659
 H        -5.4724157642        0.9793519888       -3.9304294379
 H        -6.4832344886       -0.2309162458       -3.0958864433
 H       -10.1596988618        1.8793601144       -6.1950921456
 H       -10.5769566852        0.2528215183       -6.6107226644
 H        -9.4889056465        1.7524187045       -8.9715782345
 H       -11.0997146025        2.0831992449       -8.5733420112
 H       -10.6676996492       -2.4678645972       -8.8099825428
 H        -9.4734995730       -1.8977936095       -7.7108908828
 H        -8.6318760135       -4.5009621756       -9.0606442531
 H       -10.0565691752       -4.5592046275       -8.1929095016
 H        -9.9498310886       -3.7412016064       -3.8190267427
 H       -10.4599798913       -5.5287005266       -3.5322567044
 H       -12.7193652907       -4.0387809970       -3.2028431258
 H       -12.5954208187       -4.7383748099       -4.7809926603
 H       -13.4388078489        0.6988873289       -2.9742884270
 H       -11.9371564103        0.0691873486       -3.8068775084
 H       -11.1084982240       -0.8467553012       -1.7478279932
 H       -12.5970253649       -0.1530512331       -0.9559874336
 H        -7.8339143040        3.1305779730        0.5218512671
 H        -9.2631728072        3.9897638348       -0.0398962520
 H        -7.7323759945        3.8722822400       -1.0439108362
 H       -11.8786597212        1.7548197760        1.2436112824
 H       -11.3156755051        3.2770739631        0.0677686926
 H       -10.3572204223        2.9001788109        1.5240475184
 H       -10.7904994179       -0.4204012065        0.8210481961
 H        -9.3306830068        0.4514921567        1.2813609080
 H        -9.3366477032       -0.5610942740       -0.1504741536
 H       -13.8991393454       -1.3866689237       -6.8341643172
 H       -12.7249732222       -0.2948226785       -6.0725448349
 H       -14.3812782001       -0.1348987473       -5.7063308423
 H       -15.6377222374       -2.3448905924       -5.0666169934
 H       -14.9198956954       -3.6679948546       -4.4094819212
 H       -14.5825763051       -3.3525414473       -6.0560166143
 H        -9.1853796645       -6.6863524861       -7.5819629128
 H        -8.8438237390       -7.3443330398       -5.9359727494
 H        -7.5892474017       -6.7459466384       -6.9861669393
 H        -7.2878300223       -4.2662495865       -4.3390062703
 H        -6.7161953346       -5.5975076995       -5.1771702515
 H        -7.9253232806       -5.9832224967       -3.9404520619
 H       -11.4939074186       -0.5577823781      -11.9255214880
 H       -11.3175299704       -2.1826242928      -11.0392065012
 H       -10.2346827918       -1.6464194010      -12.3221201137
 H        -8.0953833899        0.5336407955      -10.2090773221
 H        -9.3071972530        1.3292763647      -11.2655732873
 H        -8.2893212127        0.1440274057      -11.8698946422
 H        -9.8448041549       -0.0121417214       -4.4312282334
 H        -8.3719128772       -0.2462869870       -3.4800510514
 H        -8.7682464466       -1.4255013272       -4.7742046606
 H        -7.1693857033        2.4319880976       -5.8559917764
 H        -7.0438127724        1.9548382061       -4.1986707025
 H        -8.5834319742        2.4850668713       -4.7824154429
 H        -0.9317204325       -2.6772374612       -3.2988784700
 H        -2.5089849804       -2.4919934084       -2.9242081829
 H        -1.4462447472       -1.1705899667       -2.5056005184
 H        -1.0516263885        0.1733845088       -5.9742268049
 H         0.0678146199       -1.1249473700       -5.5325217217
 H        -0.5197017683       -0.0827528687       -4.2858919147
 H        -3.0340703337       -6.4102590023       -8.7497389997
 H        -4.0715410114       -6.5946226872      -10.2203174655
 H        -4.4977251690       -5.6162596141       -8.9360552463
 H        -1.5036404011       -4.2927298140      -11.7336976558
 H        -3.0330795192       -5.0951572803      -12.2952998545
 H        -1.7306679770       -6.1146131962      -11.4052783682
 H        -3.7899296245        2.6956694778       -9.4940908591
 H        -2.0858260482        2.4409794625       -9.8460943131
 H        -3.0066703719        1.2282534071       -8.8016123287
 H        -5.1112193431        2.2295074166      -11.4770450765
 H        -4.6032760251        1.2575782887      -12.7573345072
 H        -3.5976674075        2.6464802846      -12.2981231370
 H         2.0314713731       -2.4255903440      -12.8072982342
 H         3.0164343817       -2.1316150525      -11.3517157834
 H         3.7491949438       -2.2430993085      -12.8081342476
 H         4.8623585824       -0.0940351423      -12.5067292565
 H         4.0467662115        0.1604618965      -11.0987250551
 H         3.9142683872        1.4548361223      -12.2096704154
 H         5.5166215497        2.9792228914      -17.9650859592
 H         7.1850788132        2.4247489291      -17.7890226777
 H         6.2975492720        2.6979298359      -16.4225526642
 H         6.3729938181        0.0544687247      -19.4571853538
 H         5.0637205704        1.3560338235      -19.6821779240
 H         4.6895074330       -0.3175517616      -18.9183830393
 H         9.5142304665       -5.3058872674      -18.1274033337
 H         9.4995389480       -4.0882134903      -16.9500022929
 H        10.7046963974       -4.0082274112      -18.2415456978
 H         9.8536544419       -4.1163133361      -20.7341669758
 H         9.6650593910       -2.3183814470      -20.4930982570
 H         8.3893785242       -3.0735094787      -21.0615249035
 H         2.3629579799       -6.3121217753      -16.9365635119
 H         3.5695801879       -4.9802267425      -16.6046320970
 H         3.9773288675       -6.3656362490      -17.7022072814
 H         1.9276130231       -5.5634061186      -20.7103925912
 H         1.3872585665       -6.4893294933      -19.2923910032
 H         2.9210441273       -6.7976266620      -19.9213071068
 Na        3.4636070903       -1.5593914868      -17.1916933101
 Na       -6.4665947741       -1.7294516533       -8.3262363908
