232

 C         1.0265530540       -3.8642320376      -19.3130776384
 C         1.9488645190       -4.1855778793      -18.1184358738
 O         1.7707018955       -3.7138009426      -16.9671025564
 C         3.2112008355       -4.9534891752      -18.4719370510
 C         4.1093048270       -4.0094817642      -19.3819890284
 O         4.2055654722       -2.8178055222      -19.1344008839
 C         4.8401639637       -4.6237697171      -20.5651197545
 C         6.2445294655       -3.9149807530      -20.8435853642
 C         7.0171279761       -4.1681895673      -19.5409492474
 O         6.5049951610       -4.6966728539      -18.5834210017
 C         8.4844849186       -3.6442410662      -19.3900682308
 C         8.2654469274       -2.1300935538      -19.0669825950
 O         7.7265315883       -1.4093397608      -19.8478820136
 C         8.5677018158       -1.5632980893      -17.6275482154
 C         7.7887701112       -0.2021771155      -17.4229386676
 C         6.2293589487       -0.3217902307      -17.3005014958
 O         5.6590555473       -1.2917482143      -16.8274130113
 C         5.4304535842        1.0181513456      -17.5459856046
 C         3.9838922877        0.8560753336      -17.0012488702
 O         3.1902096021        0.1938821531      -17.6625706668
 C         3.5193211689        1.7456585745      -15.8505263272
 C         2.4233624856        1.1165791642      -14.8986766089
 C         2.9839660410       -0.2017523656      -14.3036040925
 O         3.6214697739       -0.9642732328      -14.9562036998
 C         2.9485948558       -0.3493782588      -12.6889417761
 C         1.7134338750        0.3512547865      -12.1722678709
 O         1.6012229276        1.5044618100      -11.9391834539
 C         0.4436182937       -0.5032484445      -11.7991858466
 C        -0.6883706094        0.3064117083      -10.9971814016
 C        -2.0516944296        0.5508086987      -11.6442538525
 O        -2.1910629287        0.4137789837      -12.8563225196
 C        -3.2578745702        1.0954040845      -10.8792491751
 C        -4.2969151676       -0.0499489538      -10.4260379431
 O        -4.9141136743       -0.0026244358       -9.3984102491
 C        -4.5862464677       -1.1177180752      -11.5693800023
 C        -3.7036830728       -2.3449713604      -11.4775901160
 C        -3.9121147610       -3.2818630472      -10.3658932557
 O        -4.7722340768       -3.1932172727       -9.4866555065
 C        -2.8434188764       -4.4820606167      -10.1696553069
 C        -1.9279332719       -3.6315751621       -9.1488818670
 O        -1.2511373875       -2.7140901621       -9.5383350067
 C        -1.9721763804       -3.9362530068       -7.6472537112
 C        -2.0593137011       -2.6291165771       -6.8500501699
 C        -2.0343053308       -2.8070285912       -5.3246112107
 O        -2.2010066928       -3.8890098872       -4.8382518037
 C        -1.9149279394       -1.4252101488       -4.3679611073
 C        -3.1825373514       -0.4074756751       -4.5228453386
 O        -3.1738025104        0.4310857295       -5.3440950332
 C        -4.3817441579       -0.5694187027       -3.6277906365
 C        -5.6827050495        0.2136884484       -3.7712062776
 C        -6.2477614631       -0.1120126961       -5.1872681330
 O        -5.6613469514       -0.8572789398       -5.9829636081
 C        -7.6565135980        0.6078667255       -5.4394771728
 C        -8.4757030105        0.3912373494       -6.8409651468
 O        -8.0596873044       -0.1079078097       -7.8329669992
 C        -9.9415555450        0.8267493304       -6.8022631510
 C       -10.4312920509        1.1391816871       -8.2532261516
 C       -10.9948758470       -0.0847470025       -8.9715557231
 O       -12.0917861444       -0.5328710402       -8.7617415480
 C       -10.2341008919       -0.8350445933      -10.2086220342
 C        -9.2773612500       -1.8991117791       -9.6338193849
 O        -8.1285470082       -1.9615831497       -9.9858479778
 C        -9.9370040276       -2.8624878325       -8.6585623083
 C        -9.1777935896       -4.1996304911       -8.5321630333
 C        -8.3575750997       -4.1634983812       -7.2084537890
 O        -7.5432219028       -3.3077213337       -6.8805037479
 C        -8.6169497044       -5.3023415632       -6.2174065528
 C       -10.2214550130       -5.0719829078       -5.7167656898
 O       -11.2109022115       -5.3950408550       -6.3130823596
 C       -10.4477727481       -4.5572177747       -4.2068553044
 C       -11.9786188534       -4.2553930255       -4.0199722271
 C       -12.2607612524       -2.9070149049       -4.7114556257
 O       -11.3202459785       -2.2108502182       -5.1343796319
 C       -13.7168397712       -2.2620189173       -4.4880798624
 C       -13.6637727066       -1.6443129099       -2.9511590449
 O       -14.2196707937       -2.1867986697       -2.0367533368
 C       -12.6965884056       -0.3548659303       -2.9009819979
 C       -12.2190469875       -0.1033240346       -1.4018616993
 C       -11.1622599473        1.0110965050       -1.5035870929
 O       -10.8502371414        1.6226769348       -2.4971807511
 C       -10.5438927857        1.5686995765       -0.1364394527
 C        -9.0524980173        1.8960496069       -0.2634457897
 O        -8.3628097192        1.4021513329       -1.1668436366
 C        -8.4073047619        2.6728039000        0.8896636757
 C       -11.3157645327        2.8124885333        0.4928758941
 C       -10.5793282094        0.4299500847        0.9828815665
 C       -13.9143188028       -1.1888884073       -5.6097441782
 C       -14.9221057310       -3.2438162544       -4.3518450548
 C        -8.6475173953       -6.7310946789       -6.7845131370
 C        -7.5916469534       -5.1576860595       -5.0744443390
 C       -11.1922310183       -1.6296878338      -11.1782616115
 C        -9.4603698066        0.3349187244      -10.9791958535
 C        -8.6026792370        0.2966763980       -4.1617090650
 C        -7.2788090045        2.0803598443       -5.5081842997
 C        -1.7940375057       -1.8571690261       -2.9340544939
 C        -0.7183106960       -0.6884128590       -4.8291505820
 C        -3.5176867912       -5.7343670988       -9.6088309836
 C        -2.0214386558       -4.7683800548      -11.3468827922
 C        -2.7445825174        1.8627982148       -9.5513304989
 C        -4.2157859870        1.9910989637      -11.7569747942
 C         2.9936825994       -1.8446701867      -12.3372534990
 C         4.2169154110        0.3407662695      -12.1683624632
 C         6.0692464269        2.2225813309      -16.8677598005
 C         5.4517318701        1.1756936206      -19.1104594889
 C         9.1501739633       -4.4104402922      -18.1950666012
 C         9.2461379886       -3.6279429570      -20.7188418186
 C         4.1024225597       -5.1720787788      -17.2576204972
 C         2.9723951814       -6.2509413963      -19.2091892444
 H         0.7106454992       -4.7323415805      -19.8386274139
 H         1.6806186367       -3.3667995556      -20.0219728359
 H         0.3110208980       -3.1440179847      -19.0704516022
 H         4.2623725217       -4.6863630090      -21.4734601183
 H         5.1014261760       -5.7057345421      -20.5084157840
 H         6.0117384081       -2.8300599940      -20.9473957976
 H         6.6875303434       -4.1862724853      -21.8138335020
 H         9.5743555816       -1.2841402626      -17.3889838918
 H         8.2991696087       -2.3238107134      -16.8351870481
 H         8.0902188088        0.3303211107      -18.3476820694
 H         8.0461582901        0.2736120559      -16.4993023962
 H         3.1782518207        2.6686276188      -16.2217235980
 H         4.3351064348        1.9026779761      -15.1807283789
 H         1.5656868231        0.9805439899      -15.5587356546
 H         2.1632328344        1.8004378912      -14.0636642085
 H         0.7467050297       -1.3165695110      -11.1536159223
 H         0.0217867888       -1.0240038587      -12.5825907061
 H        -0.2223838603        1.1815581202      -10.5039385549
 H        -0.8356672732       -0.2960388048      -10.0937598676
 H        -4.3262800375       -0.5627842721      -12.4558032836
 H        -5.6829288385       -1.4062707965      -11.5766753360
 H        -2.5979937923       -2.0230896153      -11.5108828684
 H        -3.6881963383       -2.9543380172      -12.4292376393
 H        -1.0289168943       -4.4462494337       -7.3690441431
 H        -2.7791463578       -4.5353037350       -7.3143950851
 H        -3.0063294177       -2.1069254448       -7.0450926233
 H        -1.3679435409       -1.8691868495       -7.2141143000
 H        -4.0279195797       -0.2174758293       -2.6486746704
 H        -4.7008919196       -1.6190708339       -3.5545162593
 H        -5.4648999244        1.2717681867       -3.6489542949
 H        -6.3981764758        0.0768653262       -2.9902605839
 H       -10.1096786818        1.6879636644       -6.0805759550
 H       -10.5006188152        0.0147666341       -6.3951787983
 H        -9.5780883648        1.4885972550       -8.7913513792
 H       -11.3056847877        1.8671153248       -8.2741189956
 H       -10.8633508020       -3.0642328973       -9.0860323053
 H       -10.0754380391       -2.4626052346       -7.6381370607
 H        -8.4251380685       -4.1600603266       -9.3199165930
 H        -9.8594965001       -5.0450444714       -8.7305586116
 H        -9.8799706249       -3.6435751048       -4.0688366008
 H       -10.0535327101       -5.1442191383       -3.4027142166
 H       -12.3986119805       -4.4093562975       -3.0329718548
 H       -12.6340587635       -4.9466240731       -4.5457065477
 H       -13.0296794993        0.6089448450       -3.2679458436
 H       -11.8413252463       -0.5545694254       -3.5743035551
 H       -11.8854275336       -0.9744019253       -0.8417126781
 H       -13.0892692390        0.2718019352       -0.8593230365
 H        -8.0884517284        3.7113741597        0.6040997251
 H        -7.4969069298        2.1073682872        1.1488935171
 H        -9.0607820388        2.9528455957        1.7334203746
 H       -12.2705744820        2.5654840843        0.7949777771
 H       -11.3916221639        3.5960844833       -0.2091861376
 H       -10.7162115541        3.1462302830        1.3141505127
 H       -11.5468876287        0.3393302922        1.3720200953
 H        -9.9581064317        0.7830007591        1.8451695826
 H       -10.2419597409       -0.5668324530        0.7015862489
 H       -13.1599804732       -1.3145082888       -6.4123499191
 H       -13.7470649466       -0.1659820731       -5.2246761993
 H       -14.8705624998       -1.2375688204       -6.0810383640
 H       -15.8971419359       -2.7871810422       -4.1052488485
 H       -14.6872492533       -4.0550723336       -3.5924772618
 H       -15.3002479070       -3.7037324725       -5.3602592771
 H        -9.6749870741       -7.0062275254       -7.1318958717
 H        -8.3013446428       -7.5053604398       -6.0956153239
 H        -7.9767168637       -6.8024496208       -7.5769375100
 H        -7.2896924805       -4.1400461279       -4.9698163949
 H        -6.7335297487       -5.8346098000       -5.2456934762
 H        -8.0233090289       -5.4478731516       -4.0852768119
 H       -12.0813527010       -1.0628385028      -11.4779677979
 H       -11.4902571771       -2.6217395263      -10.9158337712
 H       -10.6010646471       -1.7063268189      -12.0216383088
 H        -8.5654819454        0.6371537177      -10.4009076093
 H       -10.0377518582        1.1781462706      -10.9372589603
 H        -9.1789365240        0.1235259628      -12.0065010295
 H        -9.4816991316        0.9124504114       -4.2830892157
 H        -8.1055239859        0.5851583138       -3.2231362250
 H        -8.7010229814       -0.8552818555       -4.2913964065
 H        -6.4396360883        2.2254416369       -6.1706432447
 H        -6.9995188008        2.4522942243       -4.5522295514
 H        -8.0810334401        2.7213832261       -5.7400229133
 H        -1.1501746539       -2.7809330192       -2.7762982075
 H        -2.8123368390       -1.9385899091       -2.5360811582
 H        -1.4255109719       -0.8961160637       -2.4054393367
 H        -0.5588164220       -0.5691278834       -5.9464816481
 H         0.0804561544       -1.2597860817       -4.3649988408
 H        -0.7481335977        0.3267264502       -4.4213459160
 H        -2.9432391603       -6.4937586204       -9.0136938627
 H        -3.7758701705       -6.3439611540      -10.4721023022
 H        -4.4595623073       -5.4822577176       -9.1385053653
 H        -1.3878172101       -3.8896950997      -11.5328654404
 H        -2.6483278370       -4.8804578094      -12.1476412852
 H        -1.4730065788       -5.6755751273      -11.2179460255
 H        -1.6740184310        1.9161938082       -9.6048615175
 H        -3.1033163192        1.3583555597       -8.7197588373
 H        -3.2745273505        2.8605799268       -9.5098747338
 H        -5.0101411689        2.4408556115      -11.1480920260
 H        -4.6086952812        1.5091650565      -12.6459836835
 H        -3.6855841915        2.8053743686      -12.2199556698
 H         2.0890786671       -2.3690281900      -12.6346264045
 H         2.9805569947       -2.0263686014      -11.2782346088
 H         3.7497332876       -2.4089513212      -12.8703310223
 H         5.0623652385       -0.1049364977      -12.7407802177
 H         4.2189198317        0.2544229788      -11.0610905721
 H         4.2075382581        1.3975510623      -12.5112275858
 H         5.4668169665        3.1668495541      -16.9160245513
 H         6.9681684231        2.4744514680      -17.3666183203
 H         6.2357869297        2.1020578965      -15.7777429525
 H         6.2641073471        0.5506819250      -19.4551498475
 H         5.3850059172        2.2161512766      -19.4927534366
 H         4.4906856279        0.6883556867      -19.2989079024
 H         8.6322252065       -5.3503260154      -18.0513476976
 H         9.1766684181       -3.9103328692      -17.1982566318
 H        10.2653558141       -4.5545713514      -18.2269044943
 H        10.3994984682       -3.7250261085      -20.7127710679
 H         9.0258579428       -2.7543551125      -21.2961938199
 H         9.0672574977       -4.4592617852      -21.3553788797
 H         3.3646957139       -5.5369760854      -16.4490608000
 H         4.5140902807       -4.2160154897      -16.8284641909
 H         4.9854444413       -5.7495096854      -17.4367954730
 H         2.3846362812       -6.0355507880      -20.0719146086
 H         2.3606884267       -6.9319148605      -18.6564529057
 H         3.8336122489       -6.7862975302      -19.5498552864
 Na        3.6243948320       -2.1321555732      -17.1965457711
 Na       -6.4146086618       -1.6415066037       -8.2707210998
