232

 C       -17.2396394926       -5.4305523695       -4.1452243643
 C       -17.8784932127       -6.5258605508       -3.2850684515
 O       -17.2827167334       -7.5306490512       -3.1274303567
 C       -19.4557251810       -6.4397703179       -3.0355244275
 C       -19.5559383637       -6.7616766893       -1.4878893505
 O       -19.4121889295       -7.8820347565       -1.1317961217
 C       -19.4586095573       -5.5699228054       -0.5468835008
 C       -18.3670040740       -5.8051909157        0.5437096647
 C       -16.9484609856       -6.0187991572       -0.0358560458
 O       -16.6611363616       -5.5192037385       -1.1011067917
 C       -15.7918612452       -6.6924380786        0.7933607027
 C       -15.6369942635       -8.1696639370        0.3610231001
 O       -16.6620718451       -8.8583609250        0.4423941702
 C       -14.3603580329       -8.6327777049       -0.3848774836
 C       -14.4397798391      -10.1347483182       -0.6391853666
 C       -14.6975015557      -10.5476666214       -2.1841038653
 O       -15.8227119157      -10.5293902596       -2.6608156523
 C       -13.5097879376      -10.9731337225       -3.0517661145
 C       -12.8294658973       -9.5427917339       -3.6893806584
 O       -13.3782766974       -8.5273402901       -3.3568258686
 C       -11.5771528079       -9.6101175919       -4.6222298162
 C       -11.8763865538       -8.6619341375       -5.8322081406
 C       -10.7751505124       -8.6742917273       -6.8608590510
 O        -9.8183371947       -9.3778819371       -6.6732748391
 C       -10.8492479285       -7.9215544021       -8.3048611888
 C       -10.7211874229       -6.4600445054       -7.6899779778
 O       -10.5055151474       -6.3680333028       -6.4759304861
 C       -10.9715938609       -5.2692633990       -8.6424073347
 C        -9.6198915621       -4.5713602600       -8.7344907762
 C        -9.6348324935       -3.4419281363       -9.8246534826
 O       -10.4029487896       -3.4515369042      -10.7514240172
 C        -8.5585265175       -2.2911839479       -9.6104205392
 C        -7.3474504205       -2.7695830428      -10.6392668484
 O        -7.0847930297       -3.9385771969      -10.7994854219
 C        -6.6085872456       -1.6833112323      -11.4049847776
 C        -5.1421930444       -2.0104248042      -11.7868356518
 C        -4.6473977000       -1.0464678476      -12.9644924433
 O        -5.3058424184       -0.0878167782      -13.2983565749
 C        -3.4981337564       -1.5622821474      -13.9142620462
 C        -2.3377147614       -1.9176947806      -13.0007549642
 O        -2.3478874971       -1.3727681219      -11.9350450548
 C        -1.1785452649       -2.8870831333      -13.4022564879
 C        -0.4000256937       -3.2259746836      -12.0685325541
 C         0.5719743755       -2.0000013165      -11.9495814924
 O         0.8856513344       -1.2781025666      -12.9140608971
 C         1.1507059317       -1.6422321566      -10.5385520639
 C         2.3376471325       -0.5194506430      -10.6502886818
 O         3.4530543455       -0.8506477852      -10.8271158133
 C         2.1207556264        0.9439980117      -10.3197264169
 C         3.4075655858        1.6829702618      -10.0237805712
 C         3.1022347687        3.1488573812       -9.6568278375
 O         1.9951760369        3.6554517302       -9.3750200154
 C         4.3561930212        4.1935954633       -9.6805427882
 C         4.4499356780        4.4453554303      -11.2720896133
 O         5.3597849153        3.8579802659      -11.8396117892
 C         3.5778188250        5.3359244615      -12.1028625252
 C         4.0465572047        6.7222711542      -12.2709998528
 C         4.8708135758        6.9611075149      -13.5554925057
 O         4.8934938227        6.0483557979      -14.3705872007
 C         5.6838825885        8.3181452375      -13.7887542063
 C         6.9504483732        7.8407804859      -14.6048177310
 O         7.3345173637        8.3662210591      -15.6662475837
 C         7.7342939093        6.7218257144      -13.8556284949
 C         8.7924198531        6.1396968040      -14.7498117272
 C         8.2565687191        5.4676324456      -15.9912154727
 O         7.2542874369        4.7785305147      -15.9025661678
 C         8.8805931207        5.7606489240      -17.4566143803
 C         9.8555249680        4.5993832480      -18.0199325173
 O        10.2774174666        3.7230338568      -17.3114019318
 C        10.3009034221        4.6441002446      -19.4654543124
 C        10.2215788894        3.2284265207      -20.0661239081
 C         8.9778887794        2.5310604294      -19.6208512928
 O         7.9727567716        3.1331351738      -19.1609912159
 C         8.8450574070        0.9756627205      -19.6948197405
 C         8.7192785774        0.2607420128      -18.2509847669
 O         9.4273402851       -0.6082262230      -17.8479935309
 C         7.8021951253        0.9649608925      -17.1581638001
 C         8.1455613165        0.4068986313      -15.7332933166
 C         7.1963191124        0.9633319368      -14.6726253635
 O         7.3999175057        2.0714777741      -14.2821794016
 C         6.1344527455        0.0660569524      -14.1599344822
 C         4.6734502988        0.6638833647      -14.6383087268
 O         4.5260398173        1.7540668697      -15.1714835142
 C         3.4613185051       -0.1350238532      -14.3717186736
 C         6.2429076425       -1.3821377354      -14.6131123559
 C         6.1622464881        0.2883336715      -12.6439572645
 C         7.4024287461        0.6024357645      -20.2565420426
 C         9.8897778868        0.2786786025      -20.5311210876
 C         7.7600998039        5.9831071854      -18.4229142488
 C         9.8892157047        6.9383599991      -17.4387103006
 C         4.8222063093        9.1798835133      -14.7074355551
 C         5.9841946835        9.1087881867      -12.5448456423
 C         4.0345165693        5.5359177592       -8.8047951657
 C         5.6326831571        3.5383174869       -9.2356610814
 C        -0.0170849811       -1.0640634515       -9.6619965954
 C         1.7811526230       -2.7221005143       -9.6729913722
 C        -4.0718960905       -2.7642123276      -14.8336124956
 C        -3.1669974531       -0.3692019728      -14.9064179688
 C        -9.1928937092       -1.0055552840      -10.2044865053
 C        -7.8838428791       -2.0639944958       -8.2502490839
 C        -9.5109522323       -8.2793660993       -9.0734526498
 C       -11.9764347954       -8.1461178109       -9.2276003052
 C       -12.3005562495      -11.5528492427       -2.1625000432
 C       -13.8873517029      -11.9849995474       -4.1687751062
 C       -14.5244737598       -5.8623802546        0.6886800063
 C       -16.2442315953       -6.7157421529        2.3514452908
 C       -20.1096112047       -5.0993189174       -3.3849653576
 C       -20.0425311814       -7.6101506391       -3.9050631971
 H       -17.1157248149       -4.4261028097       -3.6557335510
 H       -17.9378357210       -5.3008396487       -5.0028530386
 H       -16.3045012734       -5.8584338591       -4.5141667715
 H       -20.3174787893       -5.3769909890        0.0638220021
 H       -19.2022384896       -4.6385967813       -1.0547629808
 H       -18.6172549974       -6.5708306722        1.2576069439
 H       -18.2501112403       -4.8735585341        1.0770757950
 H       -13.4624808180       -8.4132070299        0.1886638069
 H       -14.3930343341       -8.0622044421       -1.3291727396
 H       -15.2746052009      -10.5650068705       -0.1622210215
 H       -13.5736253517      -10.7842771524       -0.2795087382
 H       -11.3947398536      -10.6083536568       -5.0229577301
 H       -10.7403875938       -9.3258545077       -4.0812099771
 H       -12.0885720775       -7.6440863688       -5.5558729279
 H       -12.8036714513       -8.9704115364       -6.3851948262
 H       -11.9096600264       -4.7409387048       -8.3158244909
 H       -11.1628975779       -5.6733162171       -9.6955108914
 H        -8.8504425570       -5.3116567661       -8.8983632469
 H        -9.5207707004       -4.0336499994       -7.8421065338
 H        -6.5253328406       -0.7499171250      -10.8971277115
 H        -7.2159945969       -1.6925359754      -12.2939755275
 H        -4.9065974615       -3.0543312037      -12.1257571035
 H        -4.6298352443       -1.8025678837      -10.8292243344
 H        -0.5822999873       -2.3238517671      -14.1676260410
 H        -1.5743873188       -3.7902468245      -13.8855244627
 H         0.2215987151       -4.0069349070      -12.3006009449
 H        -0.8745883388       -3.5359407626      -11.1242887827
 H         1.3326748076        1.0373781713       -9.5144613260
 H         1.7787566864        1.5406898058      -11.1349937711
 H         4.1698383336        1.7617395374      -10.8425171964
 H         3.9808604891        1.2015503983       -9.2231682681
 H         2.5362779888        5.5116757032      -11.7695537654
 H         3.5262900208        4.8122267955      -13.1049426958
 H         4.7380850294        6.9633910120      -11.4703641784
 H         3.4001078031        7.5753373609      -12.3709602022
 H         7.0508346758        5.9657170215      -13.4743433029
 H         8.2641134862        7.1909418376      -13.0031840230
 H         9.2822399082        5.2931350405      -14.1397359258
 H         9.4289814877        6.8601904320      -14.9262983181
 H        11.2856529925        5.0337177614      -19.5715119594
 H         9.6634012797        5.3380592703      -20.0261640704
 H        10.9803215398        2.5424736523      -19.7082830093
 H        10.2488849289        3.3105094834      -21.1471011798
 H         6.6895765910        0.9243522886      -17.1589919951
 H         7.8633486022        2.0613447081      -17.2432154376
 H         9.1860302029        0.7434298903      -15.4396560849
 H         8.1764762126       -0.6615592702      -15.7253162214
 H         3.2819645368       -1.0296037282      -14.9696119075
 H         2.6644297400        0.5808228674      -14.1902281981
 H         3.5827363180       -0.5825759229      -13.3803419693
 H         5.4207092701       -1.9618797504      -14.1960291941
 H         7.1227770567       -1.7766388520      -14.2606721238
 H         5.9675939673       -1.3389532811      -15.6589763452
 H         5.4318127146       -0.1598645522      -12.0882224500
 H         6.0948509665        1.3466802291      -12.3870895377
 H         6.9885097074       -0.2059624269      -12.1933887423
 H         7.3137141001       -0.5267997307      -20.3960695298
 H         7.1179088797        1.2379306223      -21.1483059514
 H         6.5725314597        0.8168814708      -19.5151443699
 H         9.3063899311       -0.5394791751      -20.9562020981
 H        10.6255251179       -0.2530465172      -19.9159670504
 H        10.4117186633        0.9903345663      -21.1868681067
 H         7.2010151924        6.8673303516      -18.1990076777
 H         7.0102743246        5.1658048865      -18.2688782130
 H         8.0884987122        6.0453168102      -19.5065902459
 H        10.8707973001        6.6027511185      -17.0791816199
 H         9.6028206325        7.5499637065      -16.6988271827
 H        10.1243838296        7.3471843715      -18.3844967298
 H         5.2841388693       10.0985145305      -15.0408645587
 H         3.8405611785        9.3618326955      -14.1568047085
 H         4.6905063023        8.6412449845      -15.6224896000
 H         6.8074003349        9.8498049299      -12.7485320390
 H         6.2847381070        8.5305328834      -11.7247320369
 H         5.0590733363        9.6436913037      -12.2728903721
 H         4.0480584377        5.3060996797       -7.7501492772
 H         3.0858794460        5.8640256747       -9.2235030675
 H         4.8539591212        6.2400094638       -9.1599500260
 H         6.5579992811        3.8067477305       -9.8265226199
 H         5.6665604819        2.4413604954       -9.3891162650
 H         5.9260820842        3.7987960057       -8.2330783039
 H        -0.4552643502       -0.2188462340      -10.1848276673
 H         0.4627049036       -0.6301048664       -8.7783885598
 H        -0.8717972478       -1.7326186947       -9.4449260622
 H         1.1423088203       -3.6112131631       -9.6814615153
 H         2.0044812094       -2.4241681731       -8.6642667346
 H         2.6463574997       -3.1245434138      -10.2332398256
 H        -4.5516194912       -3.6092892224      -14.3843151778
 H        -3.1761244544       -3.1498692903      -15.3806724664
 H        -4.7992823866       -2.3665851213      -15.5125317039
 H        -2.1326253963       -0.3504626127      -15.0438602633
 H        -3.4619753763        0.5516492259      -14.4549029706
 H        -3.7403446345       -0.3975284212      -15.8397245975
 H        -9.7354746700       -0.4841543040       -9.4084699892
 H        -9.7445453104       -1.3333966077      -11.0625846229
 H        -8.2911453985       -0.3609692789      -10.3992681343
 H        -8.5488270415       -1.5610918196       -7.5049506007
 H        -7.0840022793       -1.3635689041       -8.4455379946
 H        -7.5418232441       -3.0344415578       -7.8681757947
 H        -9.6110616373       -9.2833913216       -9.4234811313
 H        -8.5923938480       -8.2494312368       -8.5242264022
 H        -9.3326989485       -7.6265142814       -9.9160562341
 H       -11.7707677556       -8.9857169544       -9.9527376884
 H       -12.0728031696       -7.3787269524       -9.9777752797
 H       -12.8799243078       -8.2541724881       -8.6759789102
 H       -11.7052484213      -10.8254580550       -1.7320802442
 H       -11.7940322192      -12.2294878013       -2.8933799839
 H       -12.7315515289      -12.2657732071       -1.4523778282
 H       -14.5237662434      -11.4219288642       -4.8212056197
 H       -14.6475565633      -12.7599278142       -3.8285352630
 H       -12.9579887868      -12.4760868355       -4.6293069876
 H       -14.4072482669       -5.7408874687       -0.4098400502
 H       -13.7105318436       -6.4005113475        1.1902149519
 H       -14.6742210682       -4.8837741207        1.1481935850
 H       -17.0086981868       -7.4316657607        2.6331218069
 H       -16.5395723240       -5.6062213434        2.5662097812
 H       -15.2780660049       -6.9761705657        2.7989480977
 H       -19.5904384198       -4.1103569548       -3.0451623441
 H       -21.1130044072       -5.0097530090       -2.8291974522
 H       -20.3391433850       -5.1196908865       -4.4143015998
 H       -21.0964065023       -7.6448602405       -3.8753437275
 H       -19.5954947982       -8.6041991768       -3.7468783246
 H       -19.7410504452       -7.4642602075       -4.9821587047
 Na      -17.4994284886       -9.3538342938       -1.4847518057
 Na        5.6768128329        3.6466919421      -14.4220936697
