232

 C         1.1009290451       -3.9229210080      -19.4198645842
 C         1.9328979836       -4.1605625096      -18.2004909978
 O         1.6816565690       -3.7352125993      -17.0620245090
 C         3.3040040597       -4.9365419321      -18.4759667378
 C         4.2320176382       -4.0948685623      -19.4181423926
 O         4.4365216029       -2.9093779622      -19.1681821243
 C         4.8473090493       -4.6004645465      -20.6445215328
 C         6.1612161669       -3.9601054985      -20.8376299612
 C         6.9493543978       -4.1300807835      -19.5798883444
 O         6.5079624558       -4.8348261286      -18.6951963746
 C         8.4675003710       -3.5839018029      -19.4416221355
 C         8.2154253002       -2.0362050760      -18.9914492775
 O         7.8754637697       -1.3653042558      -19.9646968110
 C         8.5315589397       -1.3960457250      -17.6852204579
 C         7.7655076855       -0.0939110890      -17.5307859149
 C         6.2701619899       -0.2562646190      -17.2371994026
 O         5.7802385023       -1.3362785485      -16.9616059359
 C         5.3993517237        1.0201414386      -17.5978638929
 C         3.9656177553        0.9469665334      -17.0912208386
 O         3.1037458338        0.2548461208      -17.7092761562
 C         3.4565581953        1.7499295594      -15.8471861915
 C         2.3715231255        1.0075791301      -14.9619864441
 C         3.0461421265       -0.2033079588      -14.1952373277
 O         3.7034598105       -0.9935234445      -14.8396641585
 C         2.8116591580       -0.4091800870      -12.7017021989
 C         1.5944546455        0.3850782920      -12.1130565097
 O         1.6658276922        1.6137989055      -12.0256544470
 C         0.2958401489       -0.4553130299      -11.8538215399
 C        -0.6592249498        0.3277698269      -10.9791701896
 C        -1.9526552902        0.5980208653      -11.7282806844
 O        -2.0881426169        0.2669921058      -12.8803317514
 C        -3.2294608315        1.0844362850      -10.8287247808
 C        -4.2206910703       -0.0718456460      -10.4853157293
 O        -4.8017288446       -0.1846371253       -9.3987587513
 C        -4.7049697335       -1.1009126400      -11.5679169127
 C        -3.7908560007       -2.3917785427      -11.4801885880
 C        -3.9890263570       -3.2208951105      -10.2267560569
 O        -4.8640864072       -3.1199979384       -9.3875048865
 C        -2.8457265637       -4.3237256651      -10.0921290641
 C        -1.8903728878       -3.5354255194       -9.0515573897
 O        -1.2536677385       -2.6552724830       -9.5701512299
 C        -1.9892414121       -3.8467374120       -7.5817018580
 C        -2.0769676351       -2.5076331195       -6.8139204864
 C        -2.0915582291       -2.7973519135       -5.2993113686
 O        -1.9272677637       -3.9104043246       -4.8454026409
 C        -1.9622372602       -1.4781444217       -4.3468903237
 C        -3.1519277778       -0.5134805833       -4.5564547593
 O        -3.0465498323        0.4996699429       -5.1960554162
 C        -4.3693901703       -0.7915883757       -3.4926210725
 C        -5.5313575975        0.2231544297       -3.8345935569
 C        -6.3141381260        0.0227110502       -5.1210150403
 O        -5.8470181737       -0.6798106627       -6.0142246127
 C        -7.6793781962        0.7561296440       -5.4294411747
 C        -8.4513407223        0.4073036489       -6.7463344988
 O        -7.9522315421        0.0577581903       -7.7702998603
 C        -9.9719442168        0.6713883377       -6.7706366886
 C       -10.3734953489        0.9729986788       -8.2663588821
 C       -11.1214982017       -0.1910070909       -8.9609457955
 O       -12.1779384724       -0.6638251482       -8.5627573388
 C       -10.2886663943       -0.7846424245      -10.2376017881
 C        -9.3075809888       -1.8730896128       -9.6514500108
 O        -8.1031979018       -1.9579254652       -9.9844755654
 C        -9.9619738977       -2.8401182461       -8.6868948263
 C        -9.1538851706       -4.1843323372       -8.5526791879
 C        -8.3495563254       -4.2252812128       -7.3075959602
 O        -7.4417827248       -3.4552922579       -7.1325535483
 C        -8.7586424182       -5.3206853903       -6.1577570198
 C       -10.1643501647       -5.1063676233       -5.7084313083
 O       -11.0873611551       -5.4923786438       -6.4673620287
 C       -10.4345450396       -4.5270109544       -4.3179014448
 C       -11.9201929547       -4.2154577562       -4.0645205975
 C       -12.3146515476       -2.8583943236       -4.5772632491
 O       -11.4345170621       -2.1657819402       -5.1011709449
 C       -13.7211771655       -2.2662497739       -4.4460234881
 C       -13.5587173537       -1.5762935795       -3.0370266358
 O       -14.1277107679       -2.1124226309       -2.1115765240
 C       -12.5621846995       -0.5062844071       -2.8058822365
 C       -12.2764904103       -0.0105590636       -1.3855550448
 C       -11.2153136680        1.0758355185       -1.3667086475
 O       -10.7435637659        1.5103958446       -2.3994084904
 C       -10.5494286996        1.5614701463        0.0165233605
 C        -9.0254542802        1.8030513496       -0.1992196336
 O        -8.4036920572        1.4332301954       -1.1816606944
 C        -8.4351518736        2.5344123482        0.9449392242
 C       -11.3401480437        2.8198729616        0.3571923695
 C       -10.7414957379        0.4907920654        1.1416426693
 C       -14.1244580054       -1.2984497381       -5.5837736183
 C       -14.7992606731       -3.3727463900       -4.3558374224
 C        -8.7016824901       -6.7734628155       -6.7190187270
 C        -7.7231030099       -5.1828013141       -5.0173297396
 C       -11.2985627605       -1.4349131353      -11.1687080835
 C        -9.4562687201        0.1751158536      -11.0182413440
 C        -8.6303140508        0.3743505635       -4.2823541294
 C        -7.3329329315        2.3504522397       -5.6373112628
 C        -1.6744647595       -1.9148240042       -2.8885678609
 C        -0.6926687893       -0.6798355527       -4.8745617797
 C        -3.4792774886       -5.7119471410       -9.5625842179
 C        -2.0022113328       -4.6705221742      -11.4320214370
 C        -2.7900490720        1.8506799363       -9.5196642371
 C        -4.1889719015        1.9435078575      -11.5648309172
 C         3.0484884097       -1.8607499803      -12.3032674984
 C         4.1993844077        0.3167699941      -12.0932085713
 C         6.2103981947        2.2676823279      -16.8922820597
 C         5.3479285708        1.2844424213      -19.1464432707
 C         9.1071884003       -4.5678338780      -18.4091952551
 C         9.0914924720       -3.6863671662      -20.8013096292
 C         4.1365598777       -5.2303882320      -17.1094225654
 C         3.0180585828       -6.3093738864      -19.1827413250
 H         0.8704604401       -4.8905947045      -19.7349523833
 H         1.5921323974       -3.4148129680      -20.2997370317
 H         0.2367031528       -3.3819684886      -19.1090678260
 H         4.2271263125       -4.4984989559      -21.5299957987
 H         5.0832321911       -5.7173789230      -20.7436131070
 H         5.9436776420       -2.9162594358      -21.1183809325
 H         6.6191572505       -4.3825880495      -21.6951624292
 H         9.5916257108       -1.1195416513      -17.5800341825
 H         8.3315850664       -2.0362509502      -16.8499966975
 H         7.9554877703        0.4873073405      -18.4333178544
 H         8.1157590741        0.3484071984      -16.5814263891
 H         2.9081055817        2.6589412117      -16.1277599373
 H         4.2188548514        2.0677249979      -15.1264567681
 H         1.6336999406        0.7661690346      -15.6701640487
 H         1.9484503147        1.7855740994      -14.2480134127
 H         0.4102668857       -1.5081356167      -11.6148169098
 H        -0.1796015673       -0.5021153799      -12.8175595178
 H        -0.1271933593        1.2508285358      -10.6068052155
 H        -0.8036540624       -0.1486275317      -10.0153041523
 H        -4.5899996359       -0.6331286161      -12.5730927988
 H        -5.7606462620       -1.3139895231      -11.3565805837
 H        -2.6938621162       -2.1485099402      -11.6796604124
 H        -3.9530966295       -3.0753583897      -12.3922698292
 H        -1.1445466875       -4.4284772010       -7.2002359009
 H        -2.8959065895       -4.3795187120       -7.3755101152
 H        -2.8822694754       -1.8565211046       -7.1235015299
 H        -1.1950320131       -1.8389540959       -7.0689897774
 H        -4.1456292339       -0.6576401708       -2.3852444285
 H        -4.8115027514       -1.7544188680       -3.6618238438
 H        -5.1401119026        1.2190423839       -3.8568880984
 H        -6.3162505678        0.3395212383       -3.0367404783
 H       -10.1890689224        1.5789145772       -6.2072620983
 H       -10.5605405506       -0.1468000274       -6.3758922767
 H        -9.5527513257        1.3420537602       -8.8008276681
 H       -11.2267225072        1.6764452269       -8.2359835876
 H       -10.9079297297       -3.1286797595       -9.1361861319
 H       -10.1022125450       -2.4205689401       -7.6589886019
 H        -8.4982548639       -4.2988619872       -9.4946093647
 H        -9.9531669343       -5.0020316184       -8.5527311858
 H        -9.7858140230       -3.6769349700       -4.0690510577
 H       -10.1149372950       -5.1974718567       -3.4902320436
 H       -12.0185740494       -4.1228789193       -2.9636250066
 H       -12.6244696236       -4.9550509347       -4.2019039002
 H       -12.8757008202        0.3932800115       -3.3984361362
 H       -11.6191735130       -0.7157731435       -3.3209619172
 H       -11.8245429506       -0.8194064890       -0.7816966448
 H       -13.1751078343        0.2160924807       -0.8328205219
 H        -7.8955962597        3.4198086224        0.5581718930
 H        -7.6987006195        1.9073137792        1.4640019599
 H        -9.1217311105        3.0235579600        1.5953279679
 H       -12.3887145296        2.7201345476        0.3031317061
 H       -11.0726228953        3.5544807196       -0.4010587235
 H       -11.1986653478        3.1460963350        1.3955339961
 H       -11.7497704481        0.2444600994        1.4813460982
 H       -10.1429847271        0.8194678546        1.9862410296
 H       -10.2449342018       -0.4254325626        0.7869058709
 H       -13.3921587439       -1.3295945974       -6.4780295561
 H       -14.0675465953       -0.2758631792       -5.2601109749
 H       -15.1209696216       -1.5173142209       -5.9268234757
 H       -15.7935209480       -2.9961758797       -4.3031639683
 H       -14.6389799730       -4.0464992140       -3.5128664857
 H       -14.8951318278       -3.9509424321       -5.2857264177
 H        -9.4904930254       -7.0653604506       -7.4562471755
 H        -8.7689546017       -7.4843914986       -5.9023533778
 H        -7.7207956884       -6.8884499109       -7.1545139308
 H        -7.8056954295       -4.1576812021       -4.6151544995
 H        -6.7417592587       -5.3963958441       -5.3410815272
 H        -8.0290325572       -5.7720520975       -4.1649789459
 H       -12.0969043852       -0.7936893309      -11.3493620022
 H       -11.7252953258       -2.3068628775      -10.7039575012
 H       -10.8750547788       -1.7013488185      -12.1450256072
 H        -8.5600379841        0.4189791812      -10.4639501421
 H        -9.9375983986        1.1152884953      -11.1908370718
 H        -9.1685642854       -0.3453572208      -11.9601683875
 H        -9.5971884858        0.7619038416       -4.4635478318
 H        -8.2570723512        0.8860713506       -3.4071970728
 H        -8.4974674443       -0.6903953018       -4.2218387954
 H        -6.4425528773        2.4446914208       -6.2183091561
 H        -7.1128925753        2.8504019583       -4.6273459186
 H        -8.1886206125        2.9738941862       -5.9500343790
 H        -1.1204585819       -2.8746330789       -2.9266855190
 H        -2.6553343276       -2.0543158486       -2.3981383428
 H        -1.1961115818       -1.1695553147       -2.4451358559
 H        -0.8493317775       -0.1061598644       -5.7527107259
 H         0.2359164184       -1.3468472342       -4.8807815710
 H        -0.5808385508        0.0370644660       -4.0694433097
 H        -2.8221739861       -6.4252283436       -9.0078754441
 H        -3.8375842828       -6.3410955152      -10.4200032129
 H        -4.4567628513       -5.4915799538       -8.9615317550
 H        -1.0848223956       -4.1142017632      -11.5053229887
 H        -2.5778378302       -4.5462675699      -12.3386375208
 H        -1.8247283302       -5.6905358417      -11.3974861700
 H        -1.7459300703        1.6420042256       -9.3328677088
 H        -3.4127351654        1.5068266746       -8.7341860840
 H        -3.0340596598        2.8779489208       -9.6526239977
 H        -5.0464278840        2.3134406623      -11.0105788654
 H        -4.4684221779        1.4353870314      -12.5555966654
 H        -3.7035053017        2.7651646863      -12.0115521960
 H         2.2774838296       -2.6742232696      -12.4204336262
 H         3.1820166259       -1.9121949917      -11.1952798048
 H         3.9266408095       -2.2114135812      -12.8459980570
 H         5.0866378631       -0.2465277622      -12.4510494840
 H         4.0186525522        0.4421172802      -11.0089044095
 H         4.3239683266        1.2979889387      -12.5731690968
 H         5.5803695459        3.2088927636      -16.7155999193
 H         7.0713446355        2.5973246744      -17.4007238516
 H         6.4827964182        1.9785033796      -15.8411523893
 H         6.3250936840        1.0325595190      -19.5477603801
 H         5.1790337984        2.2741302030      -19.1334791763
 H         4.4887425306        0.8069010354      -19.6812214777
 H         8.5647395106       -5.4608597187      -18.3613200758
 H         9.0795146842       -4.1191822833      -17.3846626461
 H        10.1673617795       -4.7427984864      -18.4290440488
 H         9.9098963664       -4.3013721963      -21.0048280742
 H         9.3580287311       -2.6746308446      -21.1951204233
 H         8.4260446642       -4.0490634610      -21.6565868042
 H         3.3577693735       -5.4520241736      -16.4494524004
 H         4.7993307124       -4.4929459429      -16.6826255279
 H         4.8200145635       -6.1047708904      -17.2465467393
 H         2.4092485610       -6.0590270042      -20.0597782708
 H         2.3049951479       -6.9135904331      -18.6524363845
 H         3.8538592336       -6.8774075773      -19.5249062808
 Na        3.5329682531       -2.0860989862      -17.0543779076
 Na       -6.3938515709       -1.6239072722       -8.2540633086
