232

 C         1.1075802741       -4.0029245866      -19.4741854259
 C         2.0365934096       -4.1924394863      -18.3185399459
 O         1.7316544588       -3.7062632387      -17.2653760542
 C         3.3748604012       -5.0466424474      -18.4755326054
 C         4.3205115107       -4.1151787731      -19.4079102990
 O         4.4752039813       -2.9583025655      -19.0123242514
 C         4.7489274395       -4.5483257820      -20.8431240741
 C         6.1599239211       -3.9710136583      -20.9333188665
 C         6.9370183767       -4.2569839715      -19.6638054137
 O         6.4527454318       -4.9360055070      -18.7480182807
 C         8.3335935842       -3.5870527815      -19.5304696844
 C         8.2400064932       -2.0023547759      -19.1464256604
 O         7.9671357577       -1.2510518268      -20.0709893531
 C         8.5144577051       -1.4336912002      -17.7320532057
 C         7.8179610538       -0.0282947789      -17.5530962568
 C         6.3001735910       -0.2115595605      -17.3941395007
 O         5.9029814941       -1.2894923323      -17.1021996018
 C         5.3429786961        1.1633906773      -17.5792186880
 C         3.8631703152        0.9809898370      -17.0782680671
 O         3.1041952159        0.2567772811      -17.6893509814
 C         3.4079222455        1.7294332085      -15.8471889376
 C         2.3955512860        0.8698999392      -15.0569123960
 C         3.0740821050       -0.2362465574      -14.1867517563
 O         3.7308626289       -1.1261775570      -14.7709384937
 C         2.9199654177       -0.3987533079      -12.6342492733
 C         1.6144661174        0.3364975994      -12.1563294500
 O         1.6649128332        1.5845759045      -12.0626070229
 C         0.2949688065       -0.3021164059      -11.9407972053
 C        -0.6786225839        0.3690277402      -10.9899428254
 C        -2.0387680361        0.4657575822      -11.6190849056
 O        -2.1787365556        0.2476244525      -12.8060414199
 C        -3.2719127367        1.0162657027      -10.8432281346
 C        -4.1889908302       -0.2056254156      -10.4380704961
 O        -4.5500406188       -0.2585389314       -9.2810946402
 C        -4.7775839118       -1.1057604999      -11.5237723267
 C        -3.9272113610       -2.4285518697      -11.5425729847
 C        -4.0272963729       -3.3013485031      -10.2613121939
 O        -4.8282396462       -3.1074646123       -9.3662472279
 C        -2.8796301207       -4.2359369534      -10.0678508703
 C        -1.9418788232       -3.5143430436       -9.0566891197
 O        -1.1971032241       -2.6419028741       -9.5211606561
 C        -2.0827945072       -3.7481325774       -7.6069442559
 C        -2.1110155121       -2.4325366470       -6.7419993830
 C        -1.9044921579       -2.6825958840       -5.2604801501
 O        -1.7655522496       -3.8235459420       -4.8377389404
 C        -1.8934178337       -1.5101615625       -4.2502768404
 C        -3.1493608173       -0.5938702751       -4.3521342238
 O        -3.0608550172        0.4826974369       -5.0060248309
 C        -4.4363627584       -0.8609356906       -3.6757898067
 C        -5.4813210838        0.2916748093       -4.0043317770
 C        -6.3521455868        0.1400296185       -5.3081252032
 O        -5.9241138104       -0.6617418384       -6.0843822421
 C        -7.7197324228        0.8920217540       -5.3769387382
 C        -8.4294966171        0.4806494306       -6.7241569457
 O        -7.7015428848        0.1654053070       -7.7098181890
 C        -9.9832240467        0.5871919431       -6.7921798414
 C       -10.4678816803        0.9921486226       -8.2083423372
 C       -11.0804311117       -0.2769938359       -8.9497513842
 O       -12.0935659034       -0.8099728453       -8.5098905347
 C       -10.3160632260       -0.7962940987      -10.2538493484
 C        -9.4248310184       -1.9568568021       -9.6778426158
 O        -8.2253044944       -1.8615879028       -9.9654842983
 C       -10.0083299835       -2.9552750383       -8.6832622100
 C        -9.2078259511       -4.3183834216       -8.5885982534
 C        -8.3202872919       -4.3870772353       -7.3374748190
 O        -7.3367778067       -3.6623565303       -7.2554111352
 C        -8.6660458935       -5.2903279679       -6.1523204271
 C       -10.2708556616       -5.1352044438       -5.7509525431
 O       -11.0635260829       -5.5012872823       -6.5879460397
 C       -10.4871244848       -4.5575629395       -4.3641456372
 C       -11.8972147527       -4.1962856237       -4.0143082899
 C       -12.2844931754       -2.7690230117       -4.6664011959
 O       -11.4961228207       -2.0183630224       -5.1869945659
 C       -13.7254242201       -2.3408182041       -4.4325375213
 C       -13.5029308307       -1.6009782652       -2.9765899646
 O       -14.1008348833       -2.0141277393       -2.0025058212
 C       -12.4662331235       -0.4783474565       -2.8354658070
 C       -12.3171341914       -0.0184658917       -1.4565963478
 C       -11.1469112974        0.9445129521       -1.2832975839
 O       -10.7433621276        1.4539607971       -2.3189816029
 C       -10.6216257797        1.4966791459        0.0937094603
 C        -9.0542689856        1.8214840010       -0.0932094993
 O        -8.4959316942        1.4515080342       -1.0836625370
 C        -8.2033726170        2.4635055301        1.0441213000
 C       -11.4446322243        2.8766241182        0.2177453949
 C       -10.9232737371        0.5211416938        1.2544853370
 C       -14.2230285856       -1.3534180600       -5.5127421416
 C       -14.6765237026       -3.5555826375       -4.3463084426
 C        -8.5935089152       -6.7699170477       -6.7356075847
 C        -7.7246201178       -5.1940076834       -4.9387858732
 C       -11.5161939912       -1.3441099644      -11.1943789196
 C        -9.4308401839        0.1941845854      -11.0644522184
 C        -8.6289711768        0.6166541483       -4.1675922255
 C        -7.4878193915        2.4371817992       -5.5833786837
 C        -1.5864976404       -2.0853214062       -2.8641218832
 C        -0.5771764013       -0.7010365967       -4.8999167887
 C        -3.3963277823       -5.5474654745       -9.4545641142
 C        -2.1028447900       -4.5470224935      -11.3613704143
 C        -2.8620637221        1.7453983622       -9.4874957211
 C        -4.1188059325        2.0877983871      -11.6165225392
 C         3.0013045707       -1.8608041896      -12.2593778629
 C         4.1477935927        0.4316062306      -12.0017822203
 C         6.2295051075        2.2679792307      -16.9656528886
 C         5.2789527415        1.3953872632      -19.0983974952
 C         9.1916111379       -4.5157201571      -18.5542392522
 C         9.1499139212       -3.7071501700      -20.8815451197
 C         4.0023057476       -5.2940139106      -17.0537276477
 C         2.9732340745       -6.3942402434      -19.0203836693
 H         0.7196398799       -5.0101170332      -19.8012071502
 H         1.4386045553       -3.4682348910      -20.3677558871
 H         0.2883997943       -3.4373281529      -18.9301666646
 H         3.9643119101       -4.3614650814      -21.6417479498
 H         4.9419227426       -5.5748591219      -21.0011688267
 H         6.0383238750       -2.9224668458      -21.0998810538
 H         6.7122135808       -4.3342658688      -21.7908633382
 H         9.6129205408       -1.3172274768      -17.5755932479
 H         8.1794837452       -2.0477868747      -16.9447696090
 H         7.9844287709        0.5163416127      -18.4769916461
 H         8.1830688713        0.4596758174      -16.6157147334
 H         2.7763752828        2.6670927518      -16.0388006124
 H         4.2049076180        2.0914499926      -15.1393260328
 H         1.7366831279        0.5329458835      -15.8736341194
 H         1.8473009147        1.5632794151      -14.4402634284
 H         0.4635810864       -1.3382014310      -11.6109293357
 H        -0.2021072131       -0.4755359934      -12.9607070547
 H        -0.3878822884        1.3826348372      -10.7198282151
 H        -0.5429652325       -0.0816218325       -9.9957695907
 H        -4.6152825752       -0.6240039059      -12.5186680991
 H        -5.8177256933       -1.2684096473      -11.3365807389
 H        -2.9198722614       -2.2237247250      -11.8634195095
 H        -4.3003713038       -2.9334190387      -12.4475939236
 H        -1.1728074753       -4.2520704899       -7.3298352985
 H        -2.9502306740       -4.4099505579       -7.3369753015
 H        -2.9843502363       -1.7616639233       -6.8745943287
 H        -1.3207824816       -1.7958797743       -7.1663147788
 H        -4.3652046189       -0.8755337147       -2.5686351502
 H        -4.8983654977       -1.8089049588       -4.0002399600
 H        -5.0346397126        1.3058408475       -3.9341853618
 H        -6.1925992686        0.3262906036       -3.1465246003
 H       -10.2478032831        1.3734954814       -6.1446757786
 H       -10.4555375529       -0.4166935131       -6.4841337040
 H        -9.5655444033        1.4125576954       -8.7328896819
 H       -11.2382553474        1.6747986663       -8.1811714023
 H       -11.1491152777       -3.1156754088       -8.7028141034
 H        -9.6861223430       -2.4722634350       -7.7644251545
 H        -8.6122117874       -4.4554292563       -9.5530121279
 H        -9.9857174113       -5.1092937808       -8.5276414737
 H        -9.7650556585       -3.7406700156       -4.1511267134
 H       -10.0732298375       -5.3091955921       -3.6233474406
 H       -12.0849191689       -4.1393608049       -2.9420856353
 H       -12.6260417755       -4.9888033765       -4.2440336743
 H       -12.7310109686        0.3484636909       -3.5464090102
 H       -11.4740012098       -0.7261301089       -3.2101839955
 H       -12.2815501423       -0.9527422121       -0.8570854271
 H       -13.1886387682        0.4902596565       -1.0103497193
 H        -7.5058506764        3.1352965925        0.6213241538
 H        -7.6556199617        1.6825549993        1.5549488745
 H        -8.7238367293        3.0866590916        1.7595968106
 H       -12.5220997843        2.9888801281       -0.2142958921
 H       -10.8379912289        3.6048306730       -0.3622806455
 H       -11.6841645883        3.0963645472        1.3124872706
 H       -11.9817312348        0.1526041695        1.4817906540
 H       -10.4768952402        0.9635877565        2.1072027779
 H       -10.3031863349       -0.3564494314        1.0617702411
 H       -13.5668095471       -1.3559777842       -6.3574189842
 H       -14.1809132682       -0.3104407239       -5.1981012370
 H       -15.2797910913       -1.6302873518       -5.8185031900
 H       -15.7087520322       -3.2267115854       -4.3525981461
 H       -14.5462312738       -4.0848012082       -3.4722340256
 H       -14.5458440725       -4.2201940666       -5.1276033838
 H        -9.0399827179       -6.8764350708       -7.6971133623
 H        -9.2450534159       -7.3331780595       -6.0646488921
 H        -7.5452912495       -7.2830761244       -6.7901316327
 H        -8.0860988171       -4.4847046372       -4.1903272703
 H        -6.6976818379       -4.9441737584       -5.1956080675
 H        -7.8844434317       -6.0727642228       -4.3786623707
 H       -12.1057416686       -0.4870923543      -11.4888367100
 H       -12.2224574928       -1.9105086899      -10.5817798756
 H       -11.2622307360       -1.8907537342      -12.1381408736
 H        -8.6191511051        0.6603181345      -10.5438639348
 H       -10.0477317238        1.0896041340      -11.5085913161
 H        -9.0664758435       -0.4604285632      -11.8395004784
 H        -9.6397739622        0.9733109967       -4.3393200835
 H        -8.2756623703        1.2093106323       -3.3569343056
 H        -8.5533082704       -0.3711457974       -3.9817422964
 H        -6.6124514271        2.5794403562       -6.2781314552
 H        -7.2340061878        3.0091954416       -4.6601651646
 H        -8.4571112665        2.9610231300       -5.8589881802
 H        -0.8627047187       -2.7646539469       -3.0221479581
 H        -2.4435865454       -2.5759519918       -2.5293705535
 H        -1.2801510917       -1.2386159711       -2.2267474824
 H        -1.0317292975        0.0734174437       -5.4587123568
 H         0.1428494448       -1.2698137509       -5.4641571679
 H        -0.0889756017       -0.1770966978       -4.0653811598
 H        -2.5332253864       -6.1424179301       -9.1309566362
 H        -4.0233692718       -6.2380232024      -10.1265357418
 H        -4.0657816152       -5.3310420219       -8.5889184009
 H        -1.2483034179       -3.9279000242      -11.3858210281
 H        -2.7084840411       -4.4074675311      -12.3135940086
 H        -1.7961975493       -5.6153935315      -11.4274432695
 H        -2.0959879419        1.1977363990       -8.9744995317
 H        -3.8045012131        1.8015887963       -8.8724187784
 H        -2.5969698630        2.7064925612       -9.7575671162
 H        -5.0444122351        2.3303837519      -11.0920898132
 H        -4.3215205100        1.8076027239      -12.6336693422
 H        -3.5806194145        3.0419810001      -11.8615265844
 H         2.0489105689       -2.3526856232      -12.5745873793
 H         2.9465854583       -2.1456462492      -11.1876261785
 H         3.8189683898       -2.4147382769      -12.7929143032
 H         5.0806353532       -0.0389181201      -12.2233921051
 H         3.8391233265        0.5710054040      -10.9815409284
 H         4.2150716229        1.4147422003      -12.4647215630
 H         5.6715567170        3.1788693321      -16.9303017979
 H         7.2007282847        2.5287727258      -17.5555383053
 H         6.5318767916        2.0425211908      -15.9298628709
 H         6.3120855512        1.4997963464      -19.4284084342
 H         4.6942349902        2.3548384268      -19.1635292948
 H         4.7849403035        0.6051834726      -19.6134603504
 H         9.0960910878       -5.5827592849      -18.7845191810
 H         9.0792265923       -4.4005996237      -17.5125688471
 H        10.1960023529       -4.2327644876      -18.6672763668
 H         9.7015015850       -4.5884899735      -21.0058495199
 H         9.9124824533       -2.9017854850      -20.8657244509
 H         8.7390052340       -3.5603441424      -21.9046261708
 H         3.2426904158       -5.4395294403      -16.3526042121
 H         4.6570424642       -4.5230132393      -16.7850253694
 H         4.6849038059       -6.1327706067      -17.1061995023
 H         2.6018977510       -6.4087217623      -20.0679249742
 H         2.0233169982       -6.6894234809      -18.5274194968
 H         3.7809531987       -7.1438482909      -18.8977861639
 Na        3.4598060551       -1.9597345230      -16.9089412031
 Na       -6.3485687450       -1.6089551550       -8.2603341706
