232

 C         0.8373341056       -4.7189105553      -19.5192796054
 C         1.9103678518       -4.2266803771      -18.5580555659
 O         1.7068407572       -3.1900099171      -17.9588462570
 C         3.1994063600       -5.0394788840      -18.4941992413
 C         4.3486465223       -4.0943560628      -19.1999648096
 O         4.7240395866       -3.0073438226      -18.7283739221
 C         4.7732554418       -4.5929087587      -20.5941331342
 C         6.1313078901       -3.8211482152      -20.9467910538
 C         7.1371998346       -4.2649232571      -19.8257217677
 O         6.8175027907       -5.1265477793      -19.0030260760
 C         8.5574905409       -3.5853801445      -19.9416441333
 C         8.1871379566       -1.9751627984      -19.7177728289
 O         7.8581474820       -1.2038943116      -20.5648587655
 C         8.2002600892       -1.5114232846      -18.2428351229
 C         7.7136371772        0.0379909863      -18.0352540492
 C         6.2534036064        0.0380298556      -17.6800587534
 O         5.7076136971       -0.9795094355      -17.2713611240
 C         5.4644800739        1.3461624955      -17.7846655794
 C         4.0127990410        0.9330079077      -17.0617459276
 O         3.2412163105        0.3279995126      -17.7491720034
 C         3.7405921669        1.3044778239      -15.6040599777
 C         2.5507250216        0.5989762168      -14.9601065119
 C         2.9737684236       -0.4978749767      -13.9901137050
 O         3.4648639111       -1.5045328447      -14.5417742824
 C         2.9385472082       -0.3332243940      -12.4957640397
 C         1.5475469977        0.4285722454      -12.1798362255
 O         1.6285401650        1.6337975927      -12.1396432435
 C         0.1574211064       -0.3170562193      -12.0492710259
 C        -0.7438063178        0.4916943402      -11.1196058352
 C        -2.2052100585        0.3718663233      -11.5624633841
 O        -2.5044164336       -0.4253349221      -12.4540141228
 C        -3.3526901860        1.0577450373      -10.5973243505
 C        -4.2368164832       -0.2238236726      -10.0483489341
 O        -4.3107194991       -0.5191443605       -8.8979520611
 C        -5.0261692386       -1.0138403977      -11.1028189637
 C        -4.4241028093       -2.3191887379      -11.5213928159
 C        -4.3219694112       -3.2690430904      -10.3324351979
 O        -5.1286202517       -3.3325100668       -9.4518484959
 C        -2.9224920603       -4.1188667961      -10.1052664115
 C        -2.0543378853       -3.2333428861       -8.9725904840
 O        -1.1805415078       -2.5387868338       -9.5072603346
 C        -2.3887078330       -3.3594794654       -7.5046001905
 C        -2.0375216095       -2.0895379535       -6.6926239113
 C        -1.7315489449       -2.5020958855       -5.2177676953
 O        -1.4358875787       -3.5915363273       -4.8434849045
 C        -1.5686674472       -1.2914031074       -4.0677615993
 C        -2.8306084351       -0.3000831937       -4.3154641810
 O        -2.6490686856        0.8301849300       -4.7543580178
 C        -4.2803298314       -0.8944450218       -4.1874475246
 C        -5.4631267938        0.0727098213       -4.0970427243
 C        -6.3578852475       -0.0609407000       -5.4789187250
 O        -6.0370715861       -0.8824517920       -6.2813148785
 C        -7.5577281483        1.0339554740       -5.4967969302
 C        -8.3816706797        0.7900185803       -6.7486730606
 O        -7.7922325716        0.6857059954       -7.8558863428
 C        -9.9020092615        0.8563119599       -6.6357719116
 C       -10.6098759724        0.9405478539       -8.0794620794
 C       -11.1234073706       -0.3827921328       -8.6867107565
 O       -12.0722572622       -0.9453267873       -8.2384133180
 C       -10.5114839455       -1.0242698253      -10.0153069367
 C        -9.4362823607       -2.0984175936       -9.5779323647
 O        -8.2849545105       -1.8325457010       -9.8801143056
 C        -9.9988550519       -3.3512337788       -8.8666076679
 C        -8.9789978719       -4.5124946982       -8.7964323422
 C        -8.1182647822       -4.5187395848       -7.5735613023
 O        -7.2633817320       -3.6417306375       -7.4972482226
 C        -8.3918384809       -5.4321309149       -6.4105301808
 C        -9.9490993594       -5.0881642193       -5.9876014418
 O       -10.7537273517       -5.4547978716       -6.7547607870
 C       -10.2615598971       -4.4349541892       -4.6429185395
 C       -11.7957109643       -4.3445612987       -4.2916172019
 C       -12.3395394047       -2.9823407570       -4.8309308023
 O       -11.6930906293       -2.3027177819       -5.5709400481
 C       -13.7336856116       -2.4516222693       -4.2637092755
 C       -13.6021968148       -1.6959680289       -2.7469047203
 O       -14.2127029505       -1.9863508796       -1.7558304640
 C       -12.6545095826       -0.4638957841       -2.6805027938
 C       -12.2478870303       -0.0637710163       -1.2587187890
 C       -11.2546407063        1.1114845870       -1.2477711822
 O       -10.8521621020        1.4719006182       -2.3572722901
 C       -10.8135889609        1.7103990461        0.1568932445
 C        -9.1588751604        1.6362528666        0.3554957440
 O        -8.4871765067        1.2656500889       -0.5857588754
 C        -8.6209443576        1.9117821656        1.8048801247
 C       -11.1337008752        3.2577380031        0.1868274713
 C       -11.4076940712        0.8268451660        1.3444134857
 C       -14.1673184340       -1.3270193954       -5.2577288887
 C       -14.7802940351       -3.5522018235       -4.1073259878
 C        -8.5148372325       -6.9021690996       -6.9128675900
 C        -7.3550378590       -5.3170654569       -5.3018603648
 C       -11.5728903409       -1.7423985946      -10.9002608516
 C        -9.8074755682        0.1174483791      -10.8452462614
 C        -8.4035220344        0.7382119806       -4.2417116699
 C        -6.9108145493        2.4221368729       -5.4657151811
 C        -1.8952237445       -1.9633035725       -2.7677592792
 C        -0.2195977820       -0.5902543541       -4.1216689273
 C        -3.3070870372       -5.4635017303       -9.4573693648
 C        -2.0105346301       -4.2050958695      -11.3980834192
 C        -2.6842640194        1.6815228339       -9.3733784958
 C        -4.3227243697        1.9789001198      -11.3750766396
 C         2.8690921226       -1.7020649071      -11.7464782532
 C         4.1069541951        0.5441956737      -12.1054351178
 C         6.1880889421        2.4785161126      -17.0710605403
 C         5.3427799653        1.6985789750      -19.3537847786
 C         9.5392220570       -4.2453175148      -18.9523208961
 C         9.2373448322       -3.6699017922      -21.2950078797
 C         3.6904862800       -5.3450734783      -17.0445633370
 C         3.0895231667       -6.4209962467      -19.2403508222
 H         0.4265918682       -5.6834670353      -19.0996125988
 H         1.0262650775       -4.8080438120      -20.5241382956
 H         0.0003745165       -4.0607914484      -19.3005166136
 H         3.8742733014       -4.5115034165      -21.3362544996
 H         5.1063795954       -5.6051387299      -20.5433844755
 H         5.8463363445       -2.8028236876      -20.8467253451
 H         6.4909866332       -3.9033004608      -21.9846145152
 H         9.2793086205       -1.4847518970      -18.0250775151
 H         7.7236708681       -2.2186296233      -17.5902519618
 H         7.8145167007        0.4709799012      -19.0184665942
 H         8.3220336731        0.5020270616      -17.2355551167
 H         3.6744611020        2.4321703217      -15.5554942120
 H         4.5681476002        1.1771351832      -14.8961537045
 H         1.9299847592        0.0937843566      -15.7199476023
 H         1.9992496395        1.3638283267      -14.4898592476
 H         0.2136457575       -1.3487864770      -11.8350027277
 H        -0.3555588186       -0.2181718214      -13.0034053551
 H        -0.4173808054        1.5432153987      -11.2746721363
 H        -0.5530049797        0.3760484807      -10.0197717427
 H        -5.0597544124       -0.3272669490      -11.9814904036
 H        -6.0641221368       -1.1464737221      -10.7797973688
 H        -3.4489154328       -2.1189518720      -12.0246787990
 H        -5.1161808339       -2.8219599508      -12.3165377079
 H        -1.8613658849       -4.1691299549       -7.0722888724
 H        -3.4838457427       -3.6031641501       -7.4152740845
 H        -2.9081177506       -1.3825396760       -6.7015864653
 H        -1.2386943352       -1.5538612476       -7.2378323300
 H        -4.2811149264       -1.3136091972       -3.1818724848
 H        -4.4485371937       -1.6631257544       -4.9712261744
 H        -5.0857898615        1.1014550626       -4.0632303197
 H        -6.0517286526       -0.0454241505       -3.1992939377
 H       -10.1827365382        1.7460346289       -6.1754565845
 H       -10.3164804091       -0.0603981191       -6.1747591743
 H        -9.9041080438        1.3972240719       -8.8173157831
 H       -11.4138756497        1.5601035808       -7.9839928150
 H       -10.8879879155       -3.7259588923       -9.5025289863
 H       -10.4082471382       -3.0430628194       -7.9093900984
 H        -8.3462583515       -4.4241495502       -9.7601353326
 H        -9.6425847349       -5.4202887955       -8.7481839310
 H        -9.7357149452       -3.4777034089       -4.5724151593
 H        -9.6657316411       -5.0755687880       -3.9506926958
 H       -12.0913847647       -4.4283244086       -3.2672015518
 H       -12.3657378691       -5.0864552265       -4.8690097477
 H       -13.0804010689        0.4778314672       -3.1113359010
 H       -11.8391437691       -0.6348202129       -3.3799909685
 H       -11.7888336144       -0.8571181460       -0.6905789385
 H       -13.1443062539        0.0080226841       -0.6707516419
 H        -7.5601385737        1.9313287730        1.6805786181
 H        -8.9435929366        1.1406354246        2.5257504760
 H        -8.9985691899        2.8485213647        2.2836459792
 H       -12.1151362761        3.4362623678        0.6047118746
 H       -11.2526714984        3.6073286786       -0.8047944228
 H       -10.5172315784        3.8684158691        0.8071524256
 H       -12.5216260149        0.8691501996        1.3174877515
 H       -11.0844576824        1.2412359527        2.2623964265
 H       -11.1278434792       -0.2087356536        1.3510391650
 H       -14.0943285858       -1.7141879171       -6.2282160133
 H       -13.4293258624       -0.5049787148       -5.2325076943
 H       -15.1963571960       -0.9407466001       -4.9735977533
 H       -15.5092197728       -3.1740773061       -3.3864621799
 H       -14.4458057443       -4.4578935846       -3.7202521205
 H       -15.1191185274       -3.8696550261       -5.0510559408
 H        -9.0103327536       -6.8726187265       -7.8301453098
 H        -9.1312150902       -7.4661507681       -6.2249624168
 H        -7.5282323478       -7.3555346566       -7.1936529884
 H        -6.7786728801       -4.4100963109       -5.2592828566
 H        -6.5909224102       -6.0520173456       -5.5215218652
 H        -7.8128745442       -5.4189602171       -4.3513937987
 H       -12.2894049440       -1.0784521933      -11.3535023608
 H       -12.1576561606       -2.2583956538      -10.1929835349
 H       -11.1765704463       -2.4056968210      -11.6270305570
 H        -8.8353114548        0.3556019799      -10.4344058300
 H       -10.4609425290        1.0423955769      -10.8630526562
 H        -9.6262753488       -0.1980830462      -11.8429581728
 H        -9.2727356915        1.3630398635       -4.2707471607
 H        -7.8863445334        0.8741199835       -3.3395781519
 H        -8.7524952622       -0.2884164485       -4.3491180115
 H        -6.4206337306        2.6992296617       -6.4586818764
 H        -6.1397023658        2.5145636537       -4.7423925742
 H        -7.7080836857        3.1816797018       -5.3608663855
 H        -1.1034213965       -2.5465104342       -2.4675202055
 H        -2.6792162539       -2.5508559357       -2.9669251140
 H        -2.0874043674       -1.1358297491       -2.0053287867
 H        -0.3081024241       -0.0512968592       -5.0947123314
 H         0.6250226837       -1.2453261906       -4.0964894107
 H        -0.0935737404        0.1627846058       -3.2957873728
 H        -2.4652415398       -5.9093637210       -8.8645677230
 H        -3.7471333032       -6.1415030484      -10.2705386587
 H        -4.1829170841       -5.3079972671       -8.8291830555
 H        -2.1082647411       -3.4277934222      -12.0940353302
 H        -2.2415742118       -5.1056591043      -11.9210189482
 H        -0.9544989662       -4.1391312929      -11.2217032069
 H        -3.4412653649        2.1468984311       -8.8111401729
 H        -1.9536348175        2.4659745971       -9.6502122365
 H        -2.2652500210        0.8665110316       -8.7941982097
 H        -4.9949950455        2.5739720368      -10.7304088393
 H        -4.9638758028        1.5196591569      -12.0724566558
 H        -3.7780863144        2.7154265257      -12.0595306400
 H         2.0537897214       -2.3216404034      -12.0904311362
 H         2.7469466283       -1.6336486359      -10.6663179975
 H         3.8041131177       -2.3129179296      -11.7677335937
 H         5.0420196456        0.1393659361      -12.5488602383
 H         4.0810825078        0.4461397666      -10.9918217856
 H         3.9602045028        1.6454354844      -12.3021734968
 H         5.5982051222        3.3512515602      -17.1006738908
 H         7.2029358011        2.6614439704      -17.6125032686
 H         6.5512683227        2.1854919497      -16.0706202655
 H         6.3144819386        1.6738502490      -19.7598217601
 H         4.8298255006        2.6835241132      -19.6194995285
 H         4.9100886665        0.8400070309      -19.7214894553
 H         9.9805006717       -5.1729818270      -19.4089470697
 H         9.0267355590       -4.5840113192      -18.0914361362
 H        10.4398285975       -3.7222299391      -18.6792819534
 H         8.9665163617       -2.8197974644      -21.9893507877
 H         8.8235860049       -4.4650725790      -21.9699668613
 H        10.2848763570       -3.8405300143      -21.2433543551
 H         3.2569984452       -6.2795875396      -16.6374621825
 H         3.4549388294       -4.4569680993      -16.4479778348
 H         4.7379208266       -5.5642731737      -17.0164930647
 H         2.5432982063       -6.4442088785      -20.1605100610
 H         2.5984804272       -7.0637199884      -18.5152630153
 H         4.0714230238       -6.8562695159      -19.3025132609
 Na        3.5679969687       -2.0821675135      -16.8583175468
 Na       -6.5884522109       -1.6667115802       -8.3401861346
