232

 C         0.6660617476       -4.9345215626      -19.3277949445
 C         1.8650981888       -4.2206304664      -18.6560087577
 O         1.7921878157       -3.1471390810      -18.0263905843
 C         3.1975233776       -5.0175510090      -18.6553434841
 C         4.2737288676       -4.1549348831      -19.2914173913
 O         4.6973434818       -3.1943629840      -18.6656197235
 C         4.9005293368       -4.5994696426      -20.5452704224
 C         6.1898416140       -3.7945347350      -20.8842384777
 C         7.2340871543       -4.2207086534      -19.8969227489
 O         7.0121595220       -5.0592248635      -19.0707209000
 C         8.5315049964       -3.5060782510      -20.0145295245
 C         8.2615748503       -2.0606859887      -19.7350546349
 O         7.8526793987       -1.4140354749      -20.6480858131
 C         8.4310788201       -1.4739537919      -18.2823391816
 C         7.7890360843       -0.0378772131      -18.2443110627
 C         6.3082195283       -0.0436531988      -17.7464572086
 O         5.7765848407       -0.9152510333      -17.0593993646
 C         5.4111354127        1.3484706510      -17.8402587127
 C         4.0119455315        1.0554677876      -17.1697387672
 O         3.1145049799        0.4507458206      -17.7187367871
 C         3.9039359863        1.3295684514      -15.6168811464
 C         2.6265661221        0.5811433053      -14.9578959681
 C         2.9656475907       -0.6263258127      -14.1037176064
 O         3.3144026164       -1.7187862672      -14.4999571160
 C         2.8482878442       -0.3404390498      -12.5252975975
 C         1.5516404596        0.4742304481      -12.2198925782
 O         1.6173391068        1.6432505851      -12.1406546506
 C         0.2306827896       -0.2146732175      -12.1181857308
 C        -0.7861907093        0.5550365705      -11.1634603256
 C        -2.2743466386        0.2639232506      -11.3917146610
 O        -2.5863224209       -0.4052040628      -12.3623748455
 C        -3.3613025264        0.8980295911      -10.4871162594
 C        -4.2845926430       -0.1951481806      -10.0305075417
 O        -4.4114068117       -0.4451746085       -8.8508603015
 C        -5.1264111698       -1.0528087040      -11.0911783210
 C        -4.5076197631       -2.3773522395      -11.4589209782
 C        -4.2499711571       -3.2120165783      -10.2729712872
 O        -5.1772862816       -3.3764641486       -9.4835217584
 C        -2.9450710985       -4.0836431079      -10.0532836952
 C        -2.1421655625       -3.1445288353       -9.0158724433
 O        -1.2741685162       -2.4174244500       -9.3874056133
 C        -2.5116225301       -3.2376471926       -7.5015691627
 C        -1.8316335845       -2.0671217767       -6.6790957733
 C        -1.6466706942       -2.4216184339       -5.2715383523
 O        -1.4023901477       -3.5358901336       -4.8792448840
 C        -1.7180472808       -1.2243434424       -4.1295751423
 C        -2.8067073739       -0.1951985431       -4.4589881820
 O        -2.6683311640        0.9571975814       -4.7019855961
 C        -4.1749748705       -0.8831572333       -4.2678927380
 C        -5.3798589466        0.0194219174       -4.2684329996
 C        -6.2474503739       -0.0824077762       -5.4563501700
 O        -6.0638924353       -0.9492781498       -6.2806482860
 C        -7.5070477604        0.8401360097       -5.4769644404
 C        -8.3068353079        0.7561582616       -6.8718603077
 O        -7.7519286484        0.6376546901       -7.9493660921
 C        -9.8562430551        0.9753894716       -6.8139184502
 C       -10.7173903972        0.9478680311       -8.0842253195
 C       -11.1731204181       -0.4065538391       -8.6107070961
 O       -12.1762524184       -0.8822383571       -8.1194658917
 C       -10.5706954726       -1.0708642083       -9.9541287114
 C        -9.3866668786       -2.1215980409       -9.6135105260
 O        -8.2226879941       -1.9295180688       -9.8021674857
 C        -9.8434291853       -3.4240482968       -8.9515434928
 C        -8.8333311496       -4.6230383677       -8.9793995860
 C        -8.0637981091       -4.4056136923       -7.6339290316
 O        -7.2799311195       -3.5061099757       -7.3555992779
 C        -8.4341120589       -5.4520975772       -6.4670501055
 C        -9.9206071965       -5.1282987388       -6.0809216769
 O       -10.8563931711       -5.4598445503       -6.8002556949
 C       -10.2156344390       -4.4380121256       -4.6947970564
 C       -11.7335533069       -4.3199743777       -4.2989294481
 C       -12.3162471460       -3.0093815019       -4.7045877490
 O       -11.7690707837       -2.3086473477       -5.5529251782
 C       -13.6764940372       -2.4172628048       -4.1122391677
 C       -13.5320594836       -1.7871602478       -2.7748560545
 O       -14.1827780019       -2.0873997406       -1.7996479674
 C       -12.6592016012       -0.4616719078       -2.7129558036
 C       -12.1755287391       -0.1099355678       -1.3527128220
 C       -11.2609219177        1.0993125856       -1.2633203197
 O       -10.8896376936        1.6479434831       -2.2722470514
 C       -10.8485280960        1.7050804536        0.2210766442
 C        -9.2405664983        1.4972150276        0.5201931449
 O        -8.4753954931        1.2384030994       -0.4008297990
 C        -8.6268669057        1.7587284733        1.8402299281
 C       -11.1403668979        3.1713315439        0.1321429386
 C       -11.5950721054        1.0635202557        1.3635474181
 C       -14.1463578801       -1.3348452786       -5.1994579640
 C       -14.7972227218       -3.5478478121       -4.1354312041
 C        -8.4725072948       -6.9823724636       -6.9421559171
 C        -7.3072955103       -5.3347692087       -5.3740570607
 C       -11.6390615376       -1.7576868698      -10.6959532558
 C        -9.9168861558        0.0967682791      -10.7793600678
 C        -8.3164646872        0.8357415057       -4.1490286018
 C        -6.8439431322        2.2726354696       -5.4460048206
 C        -1.9080836880       -1.9771551800       -2.6855484012
 C        -0.3114407998       -0.6621500543       -4.0326772246
 C        -3.1524017449       -5.4818239602       -9.5110789911
 C        -2.1691628287       -4.1640253087      -11.3020927606
 C        -2.7636089650        1.6925292150       -9.2973413913
 C        -4.2567151417        1.8793217998      -11.3050156659
 C         2.9291859625       -1.7011709259      -11.7061216157
 C         4.0574110297        0.5787693852      -12.1183100353
 C         6.2250073591        2.4486516518      -17.0841228089
 C         5.2260032531        1.7901713857      -19.3426214966
 C         9.5336059011       -4.0814099638      -19.0039489637
 C         9.0522402821       -3.5983418221      -21.5130620792
 C         3.5763162460       -5.1346472139      -17.0911822960
 C         3.1741662507       -6.3639152701      -19.3319422785
 H         0.1884154889       -5.8718239023      -18.9203053927
 H         0.9960685444       -5.0884549294      -20.3801507873
 H        -0.1900902615       -4.2449867126      -19.3708916897
 H         4.2694202940       -4.4963723715      -21.4382677539
 H         5.2928780270       -5.6136600207      -20.4752882202
 H         5.9192904776       -2.7729938015      -20.8908851305
 H         6.3621428914       -4.0018936347      -21.9356577956
 H         9.4526614651       -1.3148600788      -18.0507854027
 H         7.9884240266       -2.1775251145      -17.5390031371
 H         7.9060144515        0.3566934007      -19.2828860324
 H         8.3061162406        0.5275916108      -17.4699136503
 H         4.0597114146        2.4405338272      -15.4125435145
 H         4.8378030680        0.9020714050      -15.1117943956
 H         1.9491773642        0.2931264137      -15.7955142314
 H         2.1494245686        1.2898652273      -14.3174751295
 H         0.3814913057       -1.1777913686      -11.5926692847
 H        -0.2091912065       -0.4593783762      -13.1434532107
 H        -0.5186580787        1.6014975156      -11.0423351375
 H        -0.5285483709        0.1294268940      -10.1598500661
 H        -5.4015717204       -0.4240489673      -11.9082522954
 H        -6.0884618162       -1.2622625840      -10.5737285033
 H        -3.5975606736       -2.1707721156      -11.9798205026
 H        -5.1097899751       -3.0387108301      -12.0519846953
 H        -2.1684862907       -4.1723238220       -7.0293627183
 H        -3.6012902297       -3.2201431658       -7.3530898963
 H        -2.4270592242       -1.1193387465       -6.7287838495
 H        -0.8820267865       -1.8665947043       -7.1774238342
 H        -4.1276708355       -1.2520296573       -3.2870560113
 H        -4.3078199950       -1.7007962035       -5.0284294080
 H        -5.0279608439        1.1105899905       -4.2659668628
 H        -6.0130870063       -0.1030966682       -3.4058327285
 H       -10.1314071114        1.9606885454       -6.3838731200
 H       -10.2371241159        0.1303605116       -6.2449067100
 H       -10.1287168361        1.3893783836       -8.8606598862
 H       -11.5820887021        1.6240464124       -7.9255067266
 H       -10.8093411032       -3.7232165855       -9.4206393451
 H       -10.1137589934       -3.1500057557       -7.8858379575
 H        -8.1821173583       -4.5806930915       -9.8850464329
 H        -9.4405619241       -5.5480606170       -8.8295147001
 H        -9.7514828724       -3.4155214228       -4.7651545607
 H        -9.5962387663       -4.9574737944       -3.9359271203
 H       -11.9802388055       -4.3827703243       -3.2490580566
 H       -12.3870801986       -5.0585015730       -4.8963670128
 H       -13.0651610889        0.4318336910       -3.1919200752
 H       -11.7709240061       -0.6675155810       -3.3590857537
 H       -11.7593059251       -0.9705391808       -0.8259590575
 H       -13.0585292109        0.0173166890       -0.6967776536
 H        -7.5977379539        1.8131808580        1.5220466587
 H        -8.7834486866        1.0472001747        2.5982050649
 H        -8.9843172473        2.6623884171        2.2956460423
 H       -12.1213886777        3.4698764412        0.6146908126
 H       -11.3035679148        3.5185259711       -0.9712388076
 H       -10.3687794402        3.8358400496        0.6758476033
 H       -12.6481375499        1.1615422743        1.2718940913
 H       -11.2857440244        1.5700597857        2.3220952502
 H       -11.3503477657        0.0049125306        1.4935513243
 H       -14.5255714719       -1.9937779222       -5.9938319924
 H       -13.3060122609       -0.7242800380       -5.6494571746
 H       -14.9082094918       -0.6968627000       -4.7944851249
 H       -15.5258515193       -3.2248778920       -3.5349618817
 H       -14.5233442842       -4.4946522528       -3.8270536517
 H       -15.0443101625       -3.6914718631       -5.1469798763
 H        -9.4227859184       -7.2579367193       -7.5156544946
 H        -8.4958056104       -7.5044200520       -5.9688619610
 H        -7.6565306305       -7.2232598210       -7.5528043164
 H        -6.7763241033       -4.4475718538       -5.4734889849
 H        -6.5357389760       -6.0817656882       -5.5783622233
 H        -7.6688102908       -5.3650457426       -4.3346799230
 H       -12.4170717908       -1.0074742561      -10.9725780205
 H       -12.1771611721       -2.4373734032      -10.0478864146
 H       -11.3035216120       -2.2382280357      -11.5617146048
 H        -9.0069470601        0.3768268388      -10.1326965072
 H       -10.5575249330        0.8926557295      -10.9865794016
 H        -9.4489324065       -0.2461746102      -11.7287526813
 H        -9.0014428629        1.6005212195       -4.1709510417
 H        -7.7009259899        0.9519418320       -3.3069963554
 H        -8.9061643307       -0.1002348648       -4.0185897813
 H        -6.0355363966        2.4794309558       -6.2059627433
 H        -6.3362656547        2.4328030229       -4.4504254119
 H        -7.6340817224        3.0522090462       -5.6798546023
 H        -1.0192160390       -2.5975097230       -2.7251964021
 H        -2.7807453586       -2.6120167180       -2.6441991073
 H        -1.7796022106       -1.3149373791       -1.9325258442
 H         0.1540236881       -0.3942047366       -5.0196371410
 H         0.3110017810       -1.2759798350       -3.4449081609
 H        -0.4474516500        0.2454888392       -3.4706076944
 H        -2.0883942918       -5.7927666966       -9.2223967836
 H        -3.5716097205       -6.1069487505      -10.3281340628
 H        -3.8358579027       -5.5941760117       -8.6399649942
 H        -2.0752427176       -3.1691838134      -11.8579914077
 H        -2.7049032247       -4.8013165026      -11.9455714640
 H        -1.1149832079       -4.4134549884      -11.2672765533
 H        -3.1643739170        2.6670772085       -9.1870415686
 H        -1.7499735390        1.8763868012       -9.4796521401
 H        -2.8902552564        1.0798099942       -8.3411205265
 H        -4.8601018615        2.4336132372      -10.5489748141
 H        -5.0390132028        1.4890032647      -11.9632561973
 H        -3.7268092426        2.6354737518      -11.9060981636
 H         2.1127234141       -2.4313504124      -11.8942006452
 H         3.0603271444       -1.6418893537      -10.6133880528
 H         3.8761269888       -2.2429832885      -11.9535882287
 H         5.0221839396        0.0584885522      -12.3733107768
 H         3.9601506177        0.7149913440      -11.0220747974
 H         3.9685506892        1.5898316016      -12.5575793107
 H         5.6277944693        3.4098161634      -17.0338757205
 H         7.1566102425        2.6353697051      -17.5673424614
 H         6.5653562192        2.0782201579      -16.0846543723
 H         6.0681210974        1.5310799657      -19.9724691412
 H         4.9785783566        2.8379868556      -19.4914740144
 H         4.4306280365        1.0188093858      -19.6062305598
 H         9.6846409234       -5.0992151006      -19.1203573255
 H         9.2967975926       -3.8892937677      -17.9779583525
 H        10.4955153614       -3.7102824988      -19.2861961722
 H         9.2758168639       -2.6572986903      -22.1009233764
 H         8.2860721759       -3.9495626203      -22.1851429194
 H         9.8600617754       -4.2651662341      -21.5464830136
 H         2.9418965483       -5.8747160308      -16.6263911501
 H         3.3092259496       -4.2188783028      -16.7022514302
 H         4.5154036181       -5.4663403534      -16.8477421382
 H         2.9015993607       -6.2146363811      -20.3888337522
 H         2.3715622527       -6.9334649226      -18.7992720660
 H         4.0820847327       -6.9828420321      -19.1975970284
 Na        3.5167673586       -2.1497883832      -16.8274753479
 Na       -6.5419998023       -1.5375258075       -8.3707496677
