232

 C         0.5190212247       -4.9351355864      -19.1428126631
 C         1.7899757621       -4.2732515085      -18.7395308080
 O         1.7188285021       -3.1672332856      -18.1991929828
 C         3.0814615934       -5.0833707010      -18.6378070412
 C         4.3261066702       -4.1620425142      -19.2343771820
 O         4.6865431237       -3.1899959459      -18.6498347935
 C         4.8032032986       -4.5848387675      -20.6453414021
 C         6.1341628882       -3.8115142224      -20.9290948500
 C         7.3142077756       -4.2542941155      -19.9840149959
 O         7.2069821584       -5.0463364203      -19.0598897589
 C         8.7375340399       -3.4627321597      -20.1416233264
 C         8.3344888537       -1.9992201100      -19.8082225934
 O         7.7601998004       -1.3156189057      -20.6937097341
 C         8.4659241918       -1.3233937027      -18.4046486930
 C         7.6484567098       -0.0345460405      -18.3330706535
 C         6.3027193092       -0.0417161696      -17.6238412337
 O         5.9456584475       -0.9783286383      -16.9665950324
 C         5.3555581897        1.2387927759      -17.8856365218
 C         4.1164497819        0.9985492120      -17.1476130083
 O         3.1123669666        0.5849565111      -17.7545347032
 C         4.1071042908        1.1850610640      -15.6066831868
 C         2.7991416274        0.5438506825      -15.0222538788
 C         3.0003765535       -0.6478961234      -14.1109898528
 O         3.0856464545       -1.7881381564      -14.5071933346
 C         2.8524698437       -0.3806206925      -12.5847254248
 C         1.4970266111        0.5082044248      -12.2138433756
 O         1.5993071628        1.7484549188      -12.1306942945
 C         0.1674710320       -0.2578594822      -12.0645958933
 C        -0.7605143827        0.5219800967      -11.1223652329
 C        -2.2701138500        0.2447626504      -11.3968454729
 O        -2.6714095348       -0.3605404106      -12.3580660265
 C        -3.3210880597        0.8437271798      -10.4276758281
 C        -4.4083060936       -0.2614408081       -9.9831387089
 O        -4.6029011469       -0.4499204030       -8.7827536120
 C        -5.2397339968       -1.0080182282      -11.0496237671
 C        -4.6143697966       -2.3902429563      -11.4434639869
 C        -4.3706609045       -3.4013713575      -10.1790778223
 O        -5.2328771141       -3.4725988793       -9.2801268455
 C        -2.9002827251       -4.0147869548      -10.0148987863
 C        -2.1975607411       -3.0397615404       -8.9930978645
 O        -1.3398195404       -2.2576796581       -9.3331583169
 C        -2.5833624314       -3.0327921512       -7.5267290566
 C        -1.7072674983       -2.0128071724       -6.7247110849
 C        -1.5690922885       -2.3560405138       -5.1862387291
 O        -1.3822120000       -3.5590073215       -4.9383042368
 C        -1.6191225469       -1.2653997432       -4.1089805791
 C        -2.8158581246       -0.2806573310       -4.3851311697
 O        -2.6364375473        0.8955822381       -4.6478314543
 C        -4.1714413665       -0.9532144313       -4.2984068610
 C        -5.2744175369        0.0798616510       -4.2940574394
 C        -6.2870456713       -0.1861432825       -5.3854052586
 O        -6.0755825206       -1.0352028385       -6.2433952698
 C        -7.5154403563        0.8733511924       -5.5367270964
 C        -8.3115512377        0.7390794992       -6.9167243751
 O        -7.7431411762        0.5304211496       -7.9422324411
 C        -9.7980630586        1.0064138124       -6.8055280573
 C       -10.6702087849        1.0722899339       -8.0499177121
 C       -11.2235912097       -0.4089835280       -8.5679040079
 O       -12.1894259620       -0.9190372107       -8.0292488473
 C       -10.5210940250       -1.1053825338       -9.7854485851
 C        -9.4511400015       -2.1318531298       -9.5385543995
 O        -8.2648535930       -1.9153585571       -9.8467951765
 C        -9.8672504221       -3.5278883887       -9.0417649148
 C        -8.6461474033       -4.4885565649       -8.9966695358
 C        -8.0241586532       -4.5109855739       -7.6037174749
 O        -7.4308892387       -3.5044190627       -7.2922497826
 C        -8.3995883137       -5.5432794139       -6.4874097664
 C        -9.9454484614       -5.1680844583       -6.0388112998
 O       -10.8716000238       -5.4256337349       -6.7994451613
 C       -10.2053432806       -4.4292175864       -4.6923995547
 C       -11.6184107538       -4.3647837013       -4.3165869514
 C       -12.3106157746       -2.9480972849       -4.7418455024
 O       -11.6336128308       -2.2906176458       -5.5152680460
 C       -13.7304016423       -2.4386074680       -4.3046806154
 C       -13.5048043593       -1.7489986408       -2.7943979484
 O       -14.0783716494       -2.2256804176       -1.8458892364
 C       -12.5671176384       -0.5226270437       -2.7125511000
 C       -12.0949926742       -0.1818171174       -1.3166846449
 C       -11.2121275212        1.0753712834       -1.1907978391
 O       -10.9013839157        1.8056342187       -2.1029478503
 C       -10.8072689326        1.6635721848        0.2682159920
 C        -9.2546695676        1.4559171441        0.4845894715
 O        -8.5515531232        1.1051505518       -0.4423514426
 C        -8.8057620768        1.6764352144        1.9621692177
 C       -11.0661095637        3.2089542854        0.1028148567
 C       -11.7838853055        1.2196054476        1.3745348536
 C       -14.2316654352       -1.3034540165       -5.1181535596
 C       -14.7508473385       -3.6014440003       -4.0842093055
 C        -8.3870020509       -6.9808472029       -7.0120316969
 C        -7.4000649648       -5.3699573779       -5.3970725419
 C       -11.7859518531       -1.7312484580      -10.5635119098
 C        -9.9211078190       -0.0215247519      -10.7991150525
 C        -8.3446435799        0.8108163566       -4.2569495235
 C        -6.8322192494        2.3342912336       -5.6300449243
 C        -1.9238845103       -1.9825976754       -2.6876492445
 C        -0.2210278756       -0.5277976937       -4.0820395611
 C        -3.0758945200       -5.4531172116       -9.4580925836
 C        -2.1229936680       -4.0995487912      -11.3403847236
 C        -2.8565427409        1.6754536508       -9.1483205194
 C        -4.0830771748        1.9017545662      -11.3310410100
 C         3.0052246127       -1.6388084331      -11.8006177180
 C         4.0346823950        0.5344229368      -12.1471213936
 C         6.2431192627        2.4326652224      -17.1478139924
 C         5.0598362150        1.7921586919      -19.2944275189
 C         9.7688594522       -4.0524539436      -19.0449157752
 C         9.1275422163       -3.5834950979      -21.6707990299
 C         3.4750793129       -5.2278964345      -17.1217838438
 C         3.0891773532       -6.4927849127      -19.2880235926
 H         0.1852116794       -5.7545368027      -18.5342018514
 H         0.7492208680       -5.3353531786      -20.2187426067
 H        -0.3873206776       -4.2881479242      -19.1625636501
 H         4.2010218698       -4.2557181147      -21.3966951510
 H         5.1086571490       -5.6367561338      -20.7981814628
 H         5.8635581910       -2.7318873036      -20.8816428532
 H         6.2855458063       -3.9808858907      -21.9760692119
 H         9.4794034168       -1.0606017222      -18.1024718880
 H         8.0449050281       -2.1142711443      -17.7315466532
 H         7.5578372181        0.3094271723      -19.3895967992
 H         8.2378585432        0.6391149862      -17.7148386424
 H         4.1497646427        2.2771323764      -15.5614128989
 H         5.0953174111        0.9019585534      -15.1177259723
 H         2.3014884320        0.2398187115      -15.9462051635
 H         2.1830084543        1.3563337753      -14.5050585661
 H         0.2014602176       -1.3812986975      -11.8266679605
 H        -0.3395303417       -0.1276747746      -13.0783531639
 H        -0.5688931231        1.5646161497      -11.4248871513
 H        -0.4421669111        0.5144609432      -10.0907984061
 H        -5.4542670727       -0.2782834150      -11.8154240289
 H        -6.2134238711       -1.2281353285      -10.6342302049
 H        -3.6810521775       -2.1748047344      -11.9140455411
 H        -5.2509672974       -2.9056391591      -12.0747200580
 H        -2.4573301750       -4.0327103691       -6.9856743296
 H        -3.6126441224       -2.7825311039       -7.3997567575
 H        -1.9456299711       -1.0123254005       -7.0307406188
 H        -0.6794116821       -2.2491733261       -7.0517926599
 H        -4.3320451215       -1.7427313082       -3.5425367817
 H        -4.2576692401       -1.3067213527       -5.3227815418
 H        -4.9269268422        1.1205999294       -4.4782541780
 H        -5.8952790915        0.0966108112       -3.3512895328
 H        -9.9073924275        2.1002074550       -6.4660652762
 H       -10.2757314461        0.2993971228       -6.1442256905
 H       -10.1277003224        1.6431245342       -8.7860774244
 H       -11.5982921989        1.7299413073       -7.7576986038
 H       -10.6094519183       -3.8969411994       -9.6975370554
 H       -10.3935032176       -3.3703178769       -8.0472002465
 H        -7.8916579803       -3.9681040058       -9.5129876034
 H        -8.9076859819       -5.4459926536       -9.3722231280
 H        -9.7341243213       -3.4243267818       -4.8234979057
 H        -9.6517866060       -4.9049821195       -3.8815640962
 H       -11.6364329711       -4.4162178554       -3.1687332727
 H       -12.2377033143       -5.1441005392       -4.7936871672
 H       -13.0989772414        0.3260501449       -3.1530350560
 H       -11.7136491423       -0.6625342875       -3.4083050261
 H       -11.6912482515       -1.0723226115       -0.7754393666
 H       -13.0022237558       -0.0354554165       -0.6677938067
 H        -7.7303224201        1.7332018032        1.9985011597
 H        -9.1394099143        0.8240909068        2.5102924181
 H        -9.3378682811        2.4158494097        2.4639143781
 H       -12.1429624445        3.5530715578        0.4046238135
 H       -10.9363363695        3.6408514732       -0.9515655974
 H       -10.3502475664        3.7462259361        0.8591489343
 H       -12.7904740948        1.4599846189        1.0748978619
 H       -11.5927807996        1.8041917037        2.3103666081
 H       -11.7187000429        0.1529370649        1.6687387201
 H       -14.9166917906       -1.6239194937       -5.9830748256
 H       -13.3709896617       -0.7603062847       -5.4882730883
 H       -14.7425355271       -0.6674699473       -4.4431826200
 H       -15.5584244940       -3.1190280763       -3.5311135020
 H       -14.3045514251       -4.3415377041       -3.3997824511
 H       -15.0103937199       -4.0959064300       -4.9857241961
 H        -9.4002211444       -7.4476072740       -7.1601713155
 H        -7.8797049877       -7.5263144681       -6.2205436819
 H        -7.8455462880       -7.0276691726       -7.9468929385
 H        -7.1712670678       -4.2863168197       -5.3521068900
 H        -6.4561759091       -5.8740132340       -5.5289092140
 H        -7.8342108734       -5.6600055398       -4.4106942722
 H       -12.4398586948       -0.9010152162      -10.7860888432
 H       -12.4124529173       -2.4706887474      -10.0076141236
 H       -11.4715627677       -2.1681271839      -11.5528510885
 H        -9.0726552194        0.5749756954      -10.4747514199
 H       -10.7864462094        0.5504095929      -11.1217235756
 H        -9.5716246363       -0.5426817121      -11.7356967508
 H        -9.1593911839        1.5850101363       -4.1221755066
 H        -7.6250258567        0.8441763025       -3.3799253835
 H        -8.8516458269       -0.1297866919       -4.1632320277
 H        -5.8685123017        2.3989217923       -6.0955293958
 H        -6.6337073368        2.7247915664       -4.5691604515
 H        -7.4486796211        3.0089906947       -6.2541467796
 H        -1.1095230208       -2.7122636164       -2.5542808685
 H        -2.9571075384       -2.4742711405       -2.6546725301
 H        -1.7646077334       -1.2131674106       -1.9551177292
 H         0.3089069838       -0.4075516808       -4.9787382536
 H         0.3967326684       -0.9533346164       -3.2605156590
 H        -0.5120095099        0.4023755207       -3.6921370098
 H        -2.0945396736       -5.8729477797       -9.3966883338
 H        -3.6528447651       -5.9573455711      -10.2065206853
 H        -3.5794233819       -5.5680039304       -8.4466907223
 H        -1.3575244725       -3.3625664902      -11.6209323077
 H        -2.8730454347       -4.2026090640      -12.1915101195
 H        -1.4726872998       -4.9975890436      -11.3616108440
 H        -2.8537306806        2.7999913306       -9.2925262721
 H        -1.7994864063        1.4974192693       -8.9172265114
 H        -3.4437680597        1.3582850882       -8.2872892402
 H        -4.9556744396        2.3013539977      -10.8267467357
 H        -4.5665536759        1.4600573370      -12.2729484331
 H        -3.4830486619        2.7383593815      -11.6026341789
 H         2.1905676781       -2.3981586338      -11.8991971072
 H         3.1660200684       -1.4428909379      -10.7216301906
 H         3.9094937323       -2.1711848654      -12.0236975430
 H         4.9830424618       -0.0082508073      -12.2356524416
 H         3.9529111888        0.9901712235      -11.1644460215
 H         3.9738286352        1.2929693385      -12.8893022816
 H         5.5777952884        3.3305186133      -16.9843026516
 H         7.1643180579        2.7233013624      -17.6215067690
 H         6.5180400510        1.9967480636      -16.1788763703
 H         5.8605606263        1.6248400919      -20.0998568072
 H         5.0648249255        2.8504946438      -19.1341696388
 H         4.0639852742        1.3710873025      -19.6396838625
 H         9.6199935936       -5.0861828700      -18.8616632205
 H         9.6397017706       -3.4903254471      -18.1012505280
 H        10.7760029029       -4.0356401556      -19.4139753257
 H         9.7776351875       -2.8961337422      -22.0573793048
 H         8.2312637379       -3.3737177758      -22.2315694247
 H         9.6040188207       -4.6054510858      -21.8430856967
 H         2.8504878345       -5.9260579488      -16.6830655936
 H         3.3014119981       -4.3000641948      -16.5897294589
 H         4.4433295504       -5.7061060046      -16.9664268540
 H         3.1544159970       -6.1504726287      -20.3569263322
 H         2.1327147275       -7.0548976157      -19.1485447985
 H         3.8881165611       -7.2063440501      -19.0015920059
 Na        3.5521616409       -2.0278223037      -16.8830159583
 Na       -6.4362111486       -1.4282629276       -8.4438731441
