232

 C         0.3935057761       -4.9741111509      -18.9198837408
 C         1.7586775665       -4.2920953772      -18.5554895959
 O         1.8336945470       -3.0872209338      -18.4149703967
 C         2.9635108952       -5.1906571704      -18.5425146471
 C         4.2017781939       -4.3132679942      -19.1688384021
 O         4.4677684816       -3.2524029676      -18.5552187897
 C         4.8653007277       -4.5843712850      -20.5647026584
 C         6.2765766104       -3.8477553845      -20.9898717332
 C         7.4269705967       -4.1848295888      -20.0638892673
 O         7.4467223337       -5.0055685269      -19.2018879670
 C         8.8431891906       -3.3352107909      -20.2947074894
 C         8.3715887663       -1.8493509169      -20.0859843170
 O         7.7970109006       -1.2823672276      -20.9480354983
 C         8.4455548303       -1.2863958188      -18.6561437300
 C         7.7308477608        0.0676577642      -18.5192715043
 C         6.4003181436        0.0086228782      -17.7992387369
 O         6.0451958976       -0.9772166192      -17.1537919401
 C         5.4457968191        1.3427519923      -17.8139127697
 C         4.1640870599        0.8964985262      -17.0793563785
 O         3.1669560346        0.5008736843      -17.6403963021
 C         4.1032198369        0.8675714936      -15.4642307343
 C         2.7061726444        0.6902827517      -14.9563762845
 C         2.7778033874       -0.5957089484      -14.1309879015
 O         2.7953332441       -1.7208990864      -14.6579070920
 C         2.7656882732       -0.3723442977      -12.6174179854
 C         1.5409022750        0.4705869151      -12.1435464307
 O         1.5773167045        1.6410670639      -12.1749006041
 C         0.1804971541       -0.2823932615      -11.9974885172
 C        -0.7346531517        0.4941266157      -11.0451544089
 C        -2.2228702500        0.2302214195      -11.3126136383
 O        -2.6089566566       -0.4096329235      -12.2917648146
 C        -3.3227958445        0.8879979247      -10.4530620714
 C        -4.4223125362       -0.1276415480       -9.9850386093
 O        -4.6296349973       -0.3841389753       -8.8186518761
 C        -5.2919590317       -0.9359256226      -11.0325874011
 C        -4.8498160363       -2.4354319883      -11.2409570815
 C        -4.4090826750       -3.2309857299      -10.0018807496
 O        -5.1571264705       -3.5714853501       -9.1157590533
 C        -2.8790088102       -3.8804305188       -9.8413278837
 C        -2.2008354668       -2.7511267842       -9.0163787925
 O        -1.4812462067       -1.9752873752       -9.5975751904
 C        -2.5793956753       -2.6148948134       -7.5395413939
 C        -1.4508056960       -1.9055467460       -6.5876270228
 C        -1.4425168639       -2.4657300378       -5.2322791731
 O        -1.4411911966       -3.6213833894       -4.8878906233
 C        -1.5053366623       -1.3754673652       -4.0523604329
 C        -2.6892226885       -0.3995393969       -4.3736487188
 O        -2.5620350739        0.7883149546       -4.5098102535
 C        -4.1148812622       -1.0249987837       -4.3488103965
 C        -5.1989777439        0.1079689785       -4.3690196032
 C        -6.3183137775       -0.0683697717       -5.5479084401
 O        -6.3988224121       -1.1557452979       -6.0902433460
 C        -7.4394184576        0.9847772384       -5.6599217027
 C        -8.3888718126        0.6434433579       -6.8906819025
 O        -8.0045573554        0.2482625674       -7.9997014882
 C        -9.8074104755        1.0195536224       -6.7389040852
 C       -10.5617055863        1.0747053678       -8.1843878022
 C       -11.1443843483       -0.2732888822       -8.4414015132
 O       -11.9000068343       -0.8579251228       -7.6844563334
 C       -10.6960606651       -1.1547532063       -9.9673616746
 C        -9.5528329533       -2.1855895830       -9.6896213473
 O        -8.4161281494       -1.7786735701       -9.7313763453
 C        -9.8888717555       -3.6408016006       -9.3371343852
 C        -8.6193332757       -4.4355205255       -8.8967394055
 C        -8.0674460543       -4.3343817191       -7.4354213678
 O        -7.4972256207       -3.3362533760       -6.9965034539
 C        -8.4302604060       -5.4755878127       -6.4518709614
 C        -9.9404904799       -5.2094362987       -6.0597698254
 O       -10.8517410463       -5.5228668714       -6.7982717035
 C       -10.1803978698       -4.5175183739       -4.6910586574
 C       -11.7335360834       -4.2176604343       -4.3807584161
 C       -12.0970270662       -2.8384278615       -4.7670437556
 O       -11.4696744619       -1.9821351088       -5.4014260479
 C       -13.4547771563       -2.4546583813       -4.2211798407
 C       -13.2275110153       -1.8290233662       -2.8170164156
 O       -13.6360453665       -2.3637346729       -1.8104869946
 C       -12.3015738512       -0.6076856078       -2.7059514904
 C       -11.9293606715       -0.2860010602       -1.1697436513
 C       -11.3474765723        1.1619615751       -1.2178946355
 O       -11.0253644324        1.6719692704       -2.2685250415
 C       -11.0121615155        1.8318402575        0.2166608614
 C        -9.6124352641        1.3111125947        0.5907093588
 O        -8.8337249352        0.8898270919       -0.2306700875
 C        -9.0705525298        1.3130369228        2.0486883862
 C       -10.8316965385        3.3437553048        0.2092714573
 C       -11.9373552951        1.3589549072        1.3212769708
 C       -14.2731470877       -1.4250624630       -5.1717694981
 C       -14.4712191205       -3.6505731363       -4.0856859648
 C        -8.3693811489       -6.8557223941       -7.1749313325
 C        -7.5279616676       -5.5397486007       -5.2657703592
 C       -12.0115606394       -1.7748637062      -10.3784713372
 C       -10.1317368630       -0.0984174501      -10.8853641818
 C        -8.3314356127        0.8183773617       -4.3418700438
 C        -6.9484652406        2.4131209372       -5.8955776281
 C        -1.4446789796       -2.0466063797       -2.5959009532
 C        -0.2631391666       -0.4325225523       -4.1577180250
 C        -3.0202939915       -5.2806477476       -9.1689066371
 C        -2.1810150365       -3.9931019617      -11.1537163209
 C        -2.8131561866        1.4356699469       -9.1251933451
 C        -4.0339348511        2.0552978111      -11.3115036559
 C         2.9276520674       -1.6830194055      -11.7773280138
 C         4.0066087881        0.5647683867      -12.3029567012
 C         6.2994643879        2.4132168487      -17.1984836917
 C         5.1278676112        1.5273838863      -19.4010785379
 C         9.8699635337       -3.8357962377      -19.2457679797
 C         9.2997279041       -3.4104746071      -21.8628976982
 C         3.3184825812       -5.5662371472      -17.0483292717
 C         2.7552042523       -6.5075345620      -19.3264762716
 H         0.1806846693       -5.5897007273      -18.0222942748
 H         0.3411070203       -5.5827667182      -19.7454102021
 H        -0.4404268807       -4.3448646145      -18.8737742101
 H         4.1946605993       -4.2161401537      -21.4462889932
 H         5.1730512505       -5.6054099114      -20.6225475453
 H         6.1061079532       -2.7847377822      -21.0103787486
 H         6.3801968927       -4.1190346871      -22.0803157130
 H         9.5420133597       -1.1836784233      -18.5127480767
 H         8.0878025066       -2.0030200206      -17.9214269964
 H         7.5766720454        0.3942511986      -19.5467866792
 H         8.3561771952        0.7747577978      -17.9396880449
 H         4.7891988810        1.5259786056      -14.9343944918
 H         4.6203835398       -0.0753164475      -15.4412243309
 H         2.0993313727        0.6806535882      -15.8876120118
 H         2.4712386234        1.5469913104      -14.4045583639
 H         0.1493854066       -1.2625188712      -11.6685517897
 H        -0.2832302915       -0.2631487316      -12.9444977836
 H        -0.5834808203        1.5732888012      -11.1815492688
 H        -0.4600477771        0.2905585073       -9.9673537561
 H        -5.3603241178       -0.4753241227      -12.0459275119
 H        -6.3572690896       -0.9220080308      -10.7054248679
 H        -4.0178203177       -2.3912612225      -11.9940487041
 H        -5.8174578962       -2.9472956409      -11.6199916859
 H        -2.5808242032       -3.6002157248       -7.1788726011
 H        -3.6070875125       -2.2412407857       -7.2763353138
 H        -1.7109689086       -0.8298464540       -6.5093830159
 H        -0.4673008746       -2.0332755934       -7.0199474596
 H        -4.1961474530       -1.5982778765       -3.4432765626
 H        -4.2772455155       -1.6318380853       -5.2661290631
 H        -4.6449229240        0.9836371672       -4.7263978386
 H        -5.6509126369        0.2669481406       -3.4248767526
 H        -9.9169158123        1.9169625327       -6.2247598717
 H       -10.2912962605        0.1534656193       -6.2238718781
 H        -9.8770316781        1.3895150259       -8.9999717583
 H       -11.3555276912        1.7502526021       -8.2203746191
 H       -10.2915609211       -4.0713741505      -10.2936267731
 H       -10.7446922372       -3.7042318550       -8.7175632670
 H        -7.7451510449       -4.0808517042       -9.4805786933
 H        -8.8839023154       -5.4867563898       -9.0838532696
 H        -9.5216782903       -3.6748729202       -4.7872568750
 H        -9.7881941381       -5.1577087528       -3.8924110119
 H       -11.9835148913       -4.3703149512       -3.3685314245
 H       -12.3931425136       -4.7458329329       -5.1059114735
 H       -12.7704905538        0.2402569077       -3.2560041452
 H       -11.3263122104       -0.7823058899       -3.1690164976
 H       -11.2543661855       -1.0524515181       -0.7729484596
 H       -12.8060652983       -0.3589514684       -0.5339155658
 H        -7.9669548294        1.2759871563        2.1296154528
 H        -9.5076987157        0.4730362484        2.6286308236
 H        -9.5874032795        2.1448366376        2.6021315144
 H       -11.3624907437        3.8499997815       -0.4718406890
 H        -9.8065761516        3.5173800032       -0.0444916642
 H       -10.8512267811        3.7387023566        1.1514190784
 H       -13.0068740887        1.5703372528        1.1938223375
 H       -11.6823754007        1.8234109478        2.2631029587
 H       -11.7627002509        0.3061537000        1.4648679568
 H       -14.6940004952       -2.0058888347       -5.9204500183
 H       -13.6501662673       -0.5845787490       -5.5100208789
 H       -15.1186880905       -1.0181974340       -4.5972639492
 H       -15.4810018358       -3.1980600090       -4.0179158216
 H       -14.2758277354       -4.2453638762       -3.1360731606
 H       -14.3344002605       -4.3480142302       -5.0254440865
 H        -9.3424685339       -7.2919816030       -7.0403763284
 H        -7.6157938915       -7.4638670245       -6.6740447874
 H        -8.1029364845       -6.8117562075       -8.2212055942
 H        -7.7350622155       -4.8992391490       -4.4211161047
 H        -6.4996445125       -5.2289922798       -5.6212229218
 H        -7.3132198617       -6.5918407286       -4.9751055807
 H       -12.7168916815       -0.9752415840      -10.7504514068
 H       -12.5015265636       -2.3299339524       -9.5843663032
 H       -11.8630063529       -2.4540241531      -11.1906139771
 H        -9.2236356422        0.1840237889      -10.3125722194
 H       -10.7794593654        0.7185904876      -11.0656709525
 H        -9.8028392159       -0.4307934872      -11.8329919549
 H        -9.0776729136        1.5805189718       -4.3197470306
 H        -7.7239356305        0.9310510656       -3.4542974867
 H        -8.9054148241       -0.1916635481       -4.2539368164
 H        -6.0435259357        2.3595215946       -6.4741065081
 H        -6.6763377214        2.8491148704       -4.9962724274
 H        -7.5649594736        3.0141784930       -6.4740556899
 H        -0.4108336631       -2.4280793643       -2.3742666065
 H        -2.1931716004       -2.8332575531       -2.5378240345
 H        -1.6158515754       -1.2171681280       -1.9764630738
 H         0.0873937620       -0.2573444324       -5.2191290508
 H         0.5009290402       -0.9129304720       -3.6274568088
 H        -0.4544809674        0.5396147927       -3.6540339191
 H        -2.0811527607       -5.7714576962       -8.9023806438
 H        -3.5144298401       -5.8932010916       -9.9208137147
 H        -3.5386448957       -5.1234012330       -8.2898371461
 H        -1.0893004881       -3.9886053846      -11.0261592762
 H        -2.3122090800       -3.1630298074      -11.7555639505
 H        -2.2821382437       -4.9130866313      -11.7189687888
 H        -1.8076107715        1.7490129797       -9.0822741406
 H        -2.8854599292        0.6975077781       -8.3237277308
 H        -3.4675776442        2.3005660735       -8.8223481355
 H        -5.1104672443        2.1777607072      -11.2191653672
 H        -4.0255019990        1.8205299399      -12.3261823864
 H        -3.5621718937        3.0340541849      -11.0761681847
 H         2.2183224485       -2.3612358509      -12.1486850043
 H         2.8206957882       -1.6000869642      -10.7362540690
 H         3.8470443667       -2.2466657618      -11.9388134368
 H         4.8694039021       -0.0700069566      -12.3231988267
 H         3.9950658226        0.7477744757      -11.2380687421
 H         4.0531095762        1.4726026663      -12.9072821022
 H         5.6467726397        3.2392093434      -16.9648963320
 H         6.9866815512        2.7537698096      -17.9892894647
 H         6.8297944469        2.1004581164      -16.2752376104
 H         5.9686721987        1.4464731766      -20.0262250748
 H         4.7069645014        2.5204328884      -19.6840495800
 H         4.4655155469        0.6782170176      -19.5357102899
 H         9.7591660029       -4.9315110487      -18.9842820549
 H         9.8704086859       -3.2138837602      -18.3264642376
 H        10.8594937025       -3.8575030062      -19.8199098212
 H        10.4792688411       -3.5144539420      -21.7261456873
 H         9.1390565172       -2.4165863172      -22.3430322036
 H         9.0526599031       -4.2596107211      -22.4191322099
 H         2.5442289441       -6.1606188039      -16.3746572048
 H         3.5165351658       -4.6048306935      -16.5147063601
 H         4.2083014420       -6.2274390193      -17.0565520882
 H         2.4297380842       -6.4440448148      -20.3306505155
 H         2.1612295683       -7.1354625119      -18.6900412614
 H         3.7276047393       -6.9673692149      -19.3183251489
 Na        3.6027027928       -1.6950471346      -17.1451789265
 Na       -6.6688848970       -1.7869835938       -8.3609795403
