232

 C         0.4065188377       -4.8844241970      -18.6878378282
 C         1.7832492626       -4.2303187587      -18.5956687456
 O         1.8476167524       -3.0463670581      -18.3371129440
 C         3.1254355515       -5.2597230639      -18.5919367169
 C         4.2444608181       -4.3286081961      -19.1539815991
 O         4.4770498762       -3.3290697274      -18.5357382455
 C         4.9336684607       -4.7829491348      -20.4216603176
 C         6.1024273977       -3.8989299473      -20.8723930787
 C         7.5179713352       -4.1879682277      -20.1927212862
 O         7.5199691902       -4.9755351781      -19.2707682746
 C         8.8873560338       -3.3230148915      -20.3954795168
 C         8.3701506705       -1.8743743552      -20.1500366412
 O         7.8695471826       -1.2281728085      -21.0813533177
 C         8.4984505430       -1.2675053475      -18.6953314520
 C         7.8195497534        0.1381609086      -18.5489035740
 C         6.4492851283        0.0089158284      -17.8531161669
 O         6.0410690982       -1.0430908650      -17.3794812585
 C         5.5386482477        1.2814594408      -17.8797838189
 C         4.2087154426        0.8895436756      -17.1213677262
 O         3.2246958022        0.4600248322      -17.6990882576
 C         4.2275910633        0.8445872503      -15.5206463892
 C         2.6954622914        0.7196730224      -14.9278790842
 C         2.6114473173       -0.5478933882      -14.1181431650
 O         2.7260546347       -1.5690218067      -14.7538667851
 C         2.7004938920       -0.4375440134      -12.5736496683
 C         1.4519200427        0.4683296600      -12.1904395442
 O         1.5713637427        1.6941455539      -12.1528939640
 C         0.1938131886       -0.3417464575      -11.9160189592
 C        -0.7551700059        0.4656228723      -10.9858526067
 C        -2.2802166927        0.2167967325      -11.3585684052
 O        -2.5357681770       -0.5485593041      -12.2631345079
 C        -3.3274059684        0.8976476345      -10.3898513827
 C        -4.4056017087       -0.2032228096      -10.0188404912
 O        -4.7253068220       -0.4398450373       -8.8667761578
 C        -5.3201374505       -0.9047202156      -11.1048589121
 C        -4.8719021716       -2.4641619592      -11.2349268509
 C        -4.4511091262       -3.2257152505      -10.0026506784
 O        -5.2243289554       -3.4232701730       -9.0390739209
 C        -2.9732179664       -3.7406030359       -9.7896672372
 C        -2.1527813528       -2.5807270080       -8.9885573962
 O        -1.4933047896       -1.7687571403       -9.5533762305
 C        -2.4583401169       -2.5880944303       -7.5381554482
 C        -1.3501658289       -1.8835224336       -6.5909094293
 C        -1.4734414767       -2.4273283868       -5.1418690741
 O        -1.4879398133       -3.6456213286       -4.9939867521
 C        -1.4430545685       -1.3477598050       -4.0331992673
 C        -2.7044044382       -0.3835872258       -4.1993078485
 O        -2.5179563413        0.7556168183       -4.5068139887
 C        -4.1773871291       -0.9709443109       -4.3042339117
 C        -5.1891369056        0.1035273575       -4.5473856145
 C        -6.3642611361       -0.1830108618       -5.4551767703
 O        -6.3731046757       -1.2134189310       -6.0925850731
 C        -7.4862646463        0.9493160690       -5.6635424586
 C        -8.4874619782        0.6171688323       -6.9427414438
 O        -7.9949301269        0.1195045740       -7.9116289892
 C        -9.9526387460        1.0580007723       -6.8421142676
 C       -10.5015637346        1.0164592324       -8.2541756641
 C       -11.0351459893       -0.3970204933       -8.5326702061
 O       -11.7338451475       -0.8826165906       -7.6653987745
 C       -10.7726065573       -1.1158477555       -9.8623592347
 C        -9.5641116261       -2.1607992973       -9.6082029364
 O        -8.4579651233       -1.7464668756       -9.7612307033
 C        -9.8863677103       -3.5706085986       -9.3384333356
 C        -8.6475478755       -4.3611059010       -8.8583016716
 C        -8.2865778865       -4.2919006015       -7.3355759004
 O        -7.5905277241       -3.4013783807       -6.9068814107
 C        -8.4794073405       -5.5577522763       -6.4563878856
 C        -9.9689256101       -5.2450673040       -6.0354284287
 O       -10.8739519927       -5.5846627402       -6.7956016999
 C       -10.1589726134       -4.5556055503       -4.7110302219
 C       -11.6955852457       -4.2201772177       -4.5636836799
 C       -12.0836854662       -2.7507417375       -4.7769278441
 O       -11.3276451113       -1.9171388717       -5.2749356499
 C       -13.5275919708       -2.4365791232       -4.1878032172
 C       -13.1519429475       -1.8555868634       -2.7125479663
 O       -13.4241725399       -2.4793665608       -1.7148578794
 C       -12.1949828664       -0.6199248325       -2.6781919474
 C       -11.8577318592       -0.2070574027       -1.2937597938
 C       -11.2852553114        1.1364836022       -1.2035733467
 O       -11.1111783515        1.7761384939       -2.2099720809
 C       -10.9325006496        1.7677009866        0.2737034039
 C        -9.5834124710        1.1781877298        0.6452539324
 O        -8.9228646758        0.6934730728       -0.2531597712
 C        -9.2168894742        1.1519884620        2.1526793931
 C       -10.8674028428        3.3759284176        0.1468593280
 C       -12.1700164321        1.4711730104        1.2437821066
 C       -14.1397128383       -1.3992195993       -5.1723247383
 C       -14.3669917072       -3.7172350863       -4.0808461839
 C        -8.4046458869       -6.8940506247       -7.2161778140
 C        -7.4239461054       -5.5395564790       -5.2336282257
 C       -12.1262680234       -1.8213097541      -10.3402253574
 C       -10.4072184558       -0.0133543297      -11.0053097382
 C        -8.1973744515        0.9753701887       -4.3178669241
 C        -6.9787272817        2.4001488429       -5.8729855492
 C        -1.3182083639       -2.0096718776       -2.6248828578
 C        -0.1049129080       -0.4422184001       -4.2220020065
 C        -2.9811657603       -5.0681120739       -9.0114271246
 C        -2.2220245076       -4.0343317852      -11.1373516042
 C        -2.6328803918        1.5962116786       -9.0871812492
 C        -4.0164985688        2.0253687936      -11.1579573500
 C         2.8721783691       -1.7692379770      -11.7999036621
 C         3.9773620517        0.4270307472      -12.2897472498
 C         6.2479322731        2.5075020698      -17.2869707346
 C         5.1351835549        1.4896833860      -19.3596371822
 C         9.8269841980       -3.7200001736      -19.2726370422
 C         9.2016090777       -3.3597680241      -21.9471281204
 C         3.3126312743       -5.4968952123      -17.1125363487
 C         2.7369044875       -6.5020425802      -19.4675983279
 H         0.0743564813       -5.5528877058      -17.9426607639
 H         0.3556745150       -5.3719126873      -19.7011886194
 H        -0.3392853203       -4.1304759960      -18.6909487212
 H         4.2292217313       -4.6640503251      -21.2730475271
 H         5.3759139015       -5.8219309581      -20.3223454153
 H         5.7593080104       -2.8862419130      -20.8019526825
 H         6.1576619880       -4.0940365336      -21.9417600514
 H         9.5290227950       -1.2849333118      -18.4785380560
 H         7.9853842291       -1.9160662959      -17.9436899681
 H         7.7182089503        0.6793323148      -19.5181436290
 H         8.4110826966        0.7142285623      -17.8465659911
 H         4.7316165659        1.7765049829      -15.1588877467
 H         4.9896230330        0.0270941584      -15.3719989453
 H         1.9870429819        0.8269591483      -15.7498458948
 H         2.6542788644        1.6292650157      -14.3745956847
 H         0.3930719370       -1.2766539841      -11.4240789691
 H        -0.4079274591       -0.5469640086      -12.7895482222
 H        -0.4628623877        1.5113371515      -11.1641193963
 H        -0.5780072670        0.2357833114       -9.9049739285
 H        -5.4074904874       -0.4919051452      -12.1107384607
 H        -6.3905283644       -0.8646210009      -10.7370888676
 H        -4.0747145906       -2.4973960504      -12.0235625026
 H        -5.8363966740       -2.9138746616      -11.5321493989
 H        -2.7515028795       -3.5375652452       -7.0828437216
 H        -3.3774153801       -1.9915590566       -7.4860700718
 H        -1.4126189521       -0.7952411160       -6.7880551459
 H        -0.3894134971       -2.3019644540       -6.9117610633
 H        -4.4937580390       -1.4977030180       -3.4261403482
 H        -4.0489142042       -1.6629205857       -5.1941963845
 H        -4.6873287875        1.0165996803       -4.9654036098
 H        -5.6174015339        0.2598291188       -3.5992511181
 H       -10.0437437245        2.0867117823       -6.4358764045
 H       -10.5513021197        0.3640470615       -6.2704636013
 H        -9.8054653823        1.3678339227       -8.9217299953
 H       -11.3827468552        1.6820755481       -8.3891996461
 H       -10.3216011323       -3.9528552349      -10.2909552711
 H       -10.8296550946       -3.6126840799       -8.6941081529
 H        -7.6605217446       -4.0223038644       -9.3251107421
 H        -8.9267019006       -5.4502002601       -9.0838530912
 H        -9.3709727241       -3.7877146359       -4.6049512844
 H        -9.9966060857       -5.3572655383       -3.9757091597
 H       -11.9217179492       -4.4166370912       -3.5445490608
 H       -12.2789761631       -4.7966703670       -5.3182432502
 H       -12.6383333752        0.2145160622       -3.2098279564
 H       -11.2083238933       -0.8489950734       -3.1624447291
 H       -11.3345398596       -0.9675180381       -0.7360757876
 H       -12.8451940578       -0.1044044029       -0.8106433691
 H        -8.0956715919        0.9812500524        2.3124186117
 H        -9.7627283454        0.3840731830        2.7112825519
 H        -9.6293586165        2.0565261028        2.6198870284
 H       -11.3387668866        3.6347729803       -0.7734155816
 H        -9.8662964977        3.7699904197        0.1128001197
 H       -11.1587368838        3.9395962208        1.0009214568
 H       -13.0309905416        1.8888797912        0.8606964519
 H       -12.0626993159        1.9616596186        2.2377386869
 H       -12.3090323608        0.4154476261        1.4251847317
 H       -14.2369508893       -2.0118524477       -6.1090877738
 H       -13.4176124575       -0.5703360373       -5.2330379279
 H       -15.1046886712       -1.0542702539       -4.9662310256
 H       -15.3988783393       -3.5923930192       -3.8802799636
 H       -13.8406995892       -4.1856024268       -3.2664916666
 H       -14.2435978222       -4.3124171961       -4.9641291038
 H        -9.4796974699       -7.2648077456       -7.2824496401
 H        -7.7959289898       -7.5606294435       -6.6119968562
 H        -7.8975585737       -6.8485526444       -8.1187708274
 H        -7.6453461725       -4.7938010063       -4.5231003448
 H        -6.4335357649       -5.2879222656       -5.6087560902
 H        -7.2150264219       -6.5386460622       -4.8243610934
 H       -12.6956987026       -0.9981077033      -10.7459002214
 H       -12.7308760752       -2.3267870336       -9.6166200458
 H       -11.9571096892       -2.4636260490      -11.1563626975
 H        -9.3500265335        0.3003445309      -10.8543790476
 H       -11.0302773761        0.8080702613      -11.0048212950
 H       -10.4660938768       -0.4906209633      -11.9887282473
 H        -8.8828347298        1.7667790443       -4.1994236619
 H        -7.4400715252        1.2081509743       -3.5881137850
 H        -8.6753947403        0.0850682582       -4.0091968115
 H        -6.3542616917        2.5363740803       -6.7168556072
 H        -6.3984064013        2.6965078819       -4.9447975135
 H        -7.8038003008        3.0973308177       -6.0072278000
 H        -0.3177008938       -2.3637777081       -2.6271052017
 H        -1.9247454217       -2.9052813879       -2.7121544379
 H        -1.4866367877       -1.4105625087       -1.8237431336
 H        -0.0281249302        0.0939075499       -5.2086898176
 H         0.7607170491       -1.1400377069       -4.1196068613
 H        -0.0798285174        0.2726574116       -3.4072574092
 H        -1.9711305110       -5.3173153039       -8.6124500314
 H        -3.1526901139       -5.8024950189       -9.7767794040
 H        -3.6339550790       -5.0049024215       -8.0947547468
 H        -1.3750970896       -4.7097644920      -10.9478981727
 H        -1.6708223959       -3.1678832715      -11.4178803680
 H        -2.6950668766       -4.4524771562      -11.9671486850
 H        -1.5780125884        1.7511445091       -9.2520261451
 H        -2.6925667549        1.1104192154       -8.1773770014
 H        -2.9731297027        2.6454104665       -8.9469772076
 H        -5.0194477447        2.2341369491      -10.7791868596
 H        -4.3436565908        1.8104679747      -12.2071268186
 H        -3.4801568573        2.9163473672      -10.9892019485
 H         2.2588284966       -2.5769960939      -12.2028831149
 H         2.7219353927       -1.6778481690      -10.7309840307
 H         3.8453703824       -2.2070608508      -11.9514394696
 H         4.9300763457       -0.0039686879      -12.6339880930
 H         4.1724485810        0.3505618288      -11.2023303719
 H         3.7280318908        1.4438006596      -12.6168685249
 H         5.5078047503        3.3818185945      -17.1169769824
 H         6.9907357941        2.8447122743      -17.9339102158
 H         6.6135106737        2.2159506838      -16.2676284186
 H         5.9016749259        1.9943376963      -19.9213568967
 H         4.3765543822        2.1855112342      -19.3836352460
 H         4.7958412515        0.5245472141      -19.8372114025
 H         9.9081500968       -4.7724349763      -19.2569025869
 H         9.4431264257       -3.3643506392      -18.2880455413
 H        10.8578235613       -3.4249215761      -19.5252829323
 H        10.2067579465       -3.4731989156      -22.2874438977
 H         8.7757130084       -2.4494769472      -22.3767990274
 H         8.7014641312       -4.2990082864      -22.3310287850
 H         2.4522793463       -5.8035210511      -16.5296984111
 H         3.6897617423       -4.5676797423      -16.6379526264
 H         4.0578732749       -6.3185610297      -17.0295873342
 H         2.2744786241       -6.1859624929      -20.3783521353
 H         2.1393330618       -7.1461132886      -18.8607988328
 H         3.6096250101       -7.0084205211      -19.8015703158
 Na        3.5084146809       -1.6965610537      -17.2105249051
 Na       -6.7300490814       -1.9533184915       -8.2551870645
