232

 C         0.3893765956       -4.7877230877      -18.5562617351
 C         1.7418537530       -4.1604751153      -18.4087998312
 O         1.8422447028       -2.9828265146      -18.1776372565
 C         3.0373458501       -5.1004444011      -18.6427326758
 C         4.2816032282       -4.3779934731      -19.2241579477
 O         4.7996262652       -3.3941392925      -18.6217531938
 C         5.0852436400       -5.0191584410      -20.2903250661
 C         6.1708731973       -3.9757157007      -20.8521610227
 C         7.4535846048       -4.1737223335      -20.0752327858
 O         7.6175629648       -5.0988319623      -19.3250567829
 C         8.6593097890       -3.2212724187      -20.5382360969
 C         8.3086372944       -1.6169886509      -20.2340102515
 O         7.8724048590       -0.8792835836      -21.0419554188
 C         8.5463585663       -1.1642884142      -18.8162533018
 C         7.8903263678        0.1211762799      -18.4635424877
 C         6.4498976865       -0.0371405898      -18.0646162089
 O         5.9350410000       -1.1089802119      -17.7885733839
 C         5.5577133887        1.3501412154      -18.0710016937
 C         4.2527281643        0.9376831703      -17.2237078164
 O         3.2951416609        0.3947321206      -17.7100449681
 C         4.2822038561        1.1601205692      -15.6522669928
 C         2.9857650114        0.8297768655      -14.9688763469
 C         2.7615885149       -0.4517472470      -14.2838282156
 O         2.6453301528       -1.5387177312      -14.8744590394
 C         2.7797006824       -0.4223605561      -12.6926262343
 C         1.4458380499        0.3634027799      -12.2118637206
 O         1.5190639633        1.5477793749      -12.1751860648
 C         0.1585008968       -0.4490576228      -11.8010798324
 C        -0.7801773690        0.5647675054      -11.0900365909
 C        -2.2437468102        0.1945479831      -11.2036502731
 O        -2.6314516256       -0.6035503132      -12.0617974559
 C        -3.3783901991        0.8889109458      -10.2312558874
 C        -4.4257738733       -0.2206311838       -9.9006068721
 O        -4.6988064762       -0.4592376385       -8.7343866172
 C        -5.1319914072       -0.8942787402      -11.0404544773
 C        -4.8025813302       -2.3806870978      -11.2952429660
 C        -4.4142256806       -3.0986603731       -9.9705459527
 O        -5.1976689130       -3.2347648529       -9.0941273885
 C        -2.9492967699       -3.6593349582       -9.7525315681
 C        -2.2264684603       -2.4948239713       -8.9510995982
 O        -1.5162990222       -1.6475458170       -9.4817108468
 C        -2.4393348659       -2.3243737689       -7.4533958398
 C        -1.2250184738       -1.8941610826       -6.5742584811
 C        -1.4497987780       -2.3403545567       -5.2336066348
 O        -1.7137327283       -3.4896239963       -5.0148497773
 C        -1.3550231992       -1.2657813674       -4.1366489439
 C        -2.5833198253       -0.3444893072       -4.2777397440
 O        -2.3974604678        0.8405145673       -4.4063632103
 C        -4.0072748563       -0.9250993655       -4.2368291652
 C        -5.0210593713        0.3003895034       -4.4865747144
 C        -6.2911178533       -0.1012888456       -5.3207522499
 O        -6.1834888149       -1.1338843256       -5.9604645958
 C        -7.4855679339        0.9144690064       -5.4938553014
 C        -8.4275971073        0.5467506296       -6.6949600897
 O        -8.0129785727       -0.0738425753       -7.6894717257
 C        -9.8095703321        1.2496947021       -6.8133277774
 C       -10.5035383886        0.9779188450       -8.2380402552
 C       -11.0046693016       -0.4381306409       -8.5495380976
 O       -11.5050418653       -1.1088891346       -7.6661979962
 C       -11.0152581664       -1.1456723357      -10.0660479886
 C        -9.7068735604       -2.0172643333       -9.8082747397
 O        -8.5540252262       -1.5846485747      -10.0132187864
 C        -9.8864788277       -3.3756254334       -9.0185199180
 C        -8.7840544233       -4.3863573729       -8.9333620298
 C        -8.3629039851       -4.4635695819       -7.4311349625
 O        -8.0062673328       -3.4028046698       -6.9003619001
 C        -8.4502122024       -5.7837611250       -6.5349990918
 C        -9.9244859061       -5.4720943347       -6.0939787363
 O       -10.8824535854       -5.8086639047       -6.7457279299
 C       -10.1446787702       -4.6459010863       -4.8153981756
 C       -11.5819377549       -4.3725968364       -4.5308925792
 C       -12.0164979786       -2.8987428991       -4.6302836934
 O       -11.1005311594       -2.1540423650       -4.9329264687
 C       -13.3326919380       -2.4446472774       -4.1130155763
 C       -12.9519147595       -1.9032474312       -2.7062187608
 O       -13.1540458214       -2.6941714450       -1.8041258812
 C       -12.1715663703       -0.5485352371       -2.7397585809
 C       -11.8823368035       -0.0853245971       -1.2834732378
 C       -11.3354487258        1.3765080621       -1.2023426708
 O       -11.2123073330        1.9591900455       -2.2915007727
 C       -11.0839315442        1.8827614883        0.2187597983
 C        -9.7720704698        0.9743519569        0.7995913757
 O        -9.1050985307        0.3914200622       -0.0400437997
 C        -9.5259229487        0.9148211575        2.2686996509
 C       -10.6675979282        3.3186719030        0.1939331057
 C       -12.2785454158        1.6029843089        1.1705409627
 C       -13.9621029287       -1.2300312441       -5.0148370618
 C       -14.4851854478       -3.5071959757       -3.9990259606
 C        -8.3717606348       -7.1755453061       -7.2311785902
 C        -7.4142101535       -5.7338685798       -5.3472083641
 C       -12.3008672090       -2.0091494105      -10.2398153613
 C       -10.7430837978       -0.1625529532      -11.2371859948
 C        -8.2899457872        1.0167289777       -4.2036545480
 C        -6.8239939853        2.2418891602       -6.0034043229
 C        -1.4032680622       -2.0160716327       -2.7242386047
 C        -0.0064850438       -0.4010933885       -4.2182013372
 C        -3.0494903680       -4.8997035704       -8.8591550086
 C        -2.2211230146       -3.8942994821      -10.9859860295
 C        -2.8770506302        1.4242855336       -8.9547134808
 C        -4.1017888588        1.9168814773      -11.2452316791
 C         2.6651947287       -1.9445780400      -12.2736755735
 C         4.0680544985        0.2857673850      -12.1309213878
 C         6.2211108786        2.5756833528      -17.3937385813
 C         5.1135913541        1.6068132110      -19.5372676126
 C        10.0292585506       -3.6997886735      -19.6450959555
 C         8.9069880473       -3.5596946251      -22.0633664395
 C         3.3513944412       -5.6248865594      -17.1943377122
 C         2.6893083146       -6.3409400032      -19.5208575907
 H         0.2813640956       -5.6557450980      -17.8024819406
 H        -0.0085204498       -5.1198107524      -19.4960484473
 H        -0.3278373494       -4.0543558195      -18.0908505727
 H         4.4123748722       -5.4998495803      -21.0048706745
 H         5.7596616653       -5.6738273761      -19.7596778222
 H         5.7749092143       -2.9793400992      -20.5611657308
 H         6.4062200615       -3.9164024595      -21.9250260991
 H         9.6711217735       -1.0016263680      -18.8302287090
 H         8.4068995869       -1.9200912510      -18.0688190710
 H         7.7805920869        0.7442196740      -19.3580919738
 H         8.5833871225        0.6338005731      -17.7539352893
 H         4.6312304762        2.1776477229      -15.5830566908
 H         5.0858498494        0.5343396057      -15.2810328935
 H         2.1702586808        0.7056736546      -15.7570061809
 H         2.7322212427        1.7426689021      -14.4010300052
 H         0.2688846574       -1.3696831907      -11.1708912713
 H        -0.4279780676       -0.7269001453      -12.7515836041
 H        -0.5771145033        1.4578000889      -11.7008588589
 H        -0.5755190573        0.7373323327      -10.0381139609
 H        -5.1157852133       -0.3867093371      -12.0030999809
 H        -6.1607583298       -0.8141960012      -10.8143722177
 H        -4.0589593407       -2.3219727206      -12.0144976173
 H        -5.7182251328       -2.7704173154      -11.6650529773
 H        -2.6534019851       -3.2769430600       -6.9669435378
 H        -3.3721836665       -1.7434572392       -7.2609214042
 H        -1.0865050692       -0.8280414636       -6.4880482905
 H        -0.3899330888       -2.3491641878       -7.0862953285
 H        -3.9735719326       -1.3357862128       -3.1650788241
 H        -4.1234123162       -1.7764295799       -4.8885960331
 H        -4.4342876613        0.7987758555       -5.2502107462
 H        -5.2272613267        0.9154148329       -3.5508984711
 H        -9.7028896548        2.3393963134       -6.7568762270
 H       -10.5482326251        0.9251041183       -6.0178311082
 H        -9.6387365510        1.2233604086       -9.0053018431
 H       -11.2589023947        1.6898575891       -8.5514880449
 H       -10.8679980033       -3.8194443152       -9.2124458890
 H       -10.1144114680       -2.9297974194       -8.0874065655
 H        -7.8961250946       -3.9662119561       -9.3528760258
 H        -9.0594367165       -5.2759027358       -9.4239006760
 H        -9.6760088291       -3.6580875045       -4.9887280763
 H        -9.6576442734       -5.1722609564       -3.9727383754
 H       -11.8394518130       -4.7751273512       -3.5073770145
 H       -12.1086458534       -4.8415545786       -5.3736941080
 H       -12.8213061527        0.2529213648       -3.1453249635
 H       -11.2901755242       -0.6662316385       -3.3419581794
 H       -11.1239337676       -0.7587159379       -0.7866664032
 H       -12.8910945114       -0.2591592399       -0.8418486623
 H        -8.6782076430        0.3331577581        2.3909563074
 H       -10.3206504020        0.3490446033        2.7370924746
 H        -9.4939086019        1.8744844367        2.7591524606
 H       -11.2079246354        3.7849451138       -0.6876644472
 H        -9.5484090463        3.5240477412        0.0805570612
 H       -10.7064388418        3.9465253948        1.1318108381
 H       -13.2652229059        2.0253300081        0.7673216532
 H       -12.1954240445        2.0764711551        2.1165596631
 H       -12.4100432174        0.5272979823        1.2812073071
 H       -14.0581689343       -1.5574990316       -5.9971309651
 H       -13.4219802208       -0.3024227769       -4.8779499754
 H       -15.0390986804       -1.1028366318       -4.6809583784
 H       -15.4034626459       -3.0353640922       -3.7890140024
 H       -14.2236931262       -4.3119821391       -3.3302267857
 H       -14.7609417017       -3.7173391955       -5.0325003309
 H        -8.7796572027       -6.9976722047       -8.1800015772
 H        -8.9387264329       -7.9626494777       -6.7363482610
 H        -7.2902065588       -7.5361999053       -7.1906851055
 H        -7.2132647535       -4.7116693332       -5.0664830568
 H        -6.5221203079       -6.3026311475       -5.4941334887
 H        -7.7971561618       -6.3185690712       -4.5564960023
 H       -13.2532575890       -1.4575090418      -10.3270818935
 H       -12.3809071308       -2.6311187544       -9.3605235964
 H       -12.1659094210       -2.6483896174      -11.1219551191
 H        -9.6685077308        0.0430635006      -11.3152366073
 H       -11.3200826743        0.7966209960      -11.0312864166
 H       -11.0949318306       -0.5772176353      -12.1870306756
 H        -9.2454909320        1.5576247469       -4.2312092919
 H        -7.8110376899        1.4766321633       -3.3386662714
 H        -8.5465440909       -0.0717215487       -3.8353360488
 H        -6.7287750161        2.2739449687       -7.1641309453
 H        -5.8401234976        2.3837862477       -5.5639129059
 H        -7.4012569372        3.1720826823       -5.7189263025
 H        -0.4963776258       -2.7369709797       -2.7210257358
 H        -2.3137323669       -2.6378541364       -2.6672126281
 H        -1.3230961919       -1.2442619302       -1.9194249095
 H        -0.2215355585        0.6191132837       -4.4915170509
 H         0.5503079927       -0.8155425949       -5.0109439638
 H         0.5624869504       -0.3912814312       -3.2785897873
 H        -2.0798483273       -5.0260467093       -8.3578366264
 H        -3.1930191806       -5.8563870013       -9.4071721134
 H        -3.6907262805       -4.5931907863       -8.0935351476
 H        -1.9238395804       -4.9357306076      -11.1946117249
 H        -1.2276946270       -3.4112172238      -11.0883512587
 H        -2.8551720676       -3.5279565513      -11.8539066478
 H        -2.2854769057        2.3164128001       -9.0377029718
 H        -2.3451641859        0.6779863083       -8.2948885254
 H        -3.7035611846        1.8184710792       -8.3790408943
 H        -4.5292431390        2.8490625384      -10.8509869977
 H        -4.8874489108        1.4943191520      -11.7679171437
 H        -3.2655317048        2.3322172959      -11.8591842654
 H         1.8318570321       -2.5241452642      -12.6806182039
 H         2.5436560090       -1.9555393694      -11.1703171639
 H         3.5081304866       -2.6473789299      -12.5273933033
 H         4.9510894342        0.0938385082      -12.7118236622
 H         4.3413974857       -0.2741592509      -11.2546353685
 H         3.8611546318        1.3407962062      -11.9422065760
 H         5.5942267280        3.4138645813      -17.4894993703
 H         7.1313896485        2.8220984113      -18.0491334295
 H         6.4158517356        2.4194923932      -16.3344129819
 H         5.7080099111        2.4038925922      -20.0375233670
 H         3.9904796666        1.9177445780      -19.6682860559
 H         5.1623642318        0.6527863425      -20.1102290623
 H        10.5398576542       -4.4651744414      -20.2548368229
 H         9.5600990105       -4.1811828550      -18.8691352759
 H        10.7131909728       -2.9468613355      -19.3061771597
 H         9.8253729455       -2.9698560423      -22.4726049445
 H         8.0244753701       -3.3619861220      -22.6390706208
 H         9.1310493344       -4.5523086017      -22.0697678543
 H         2.3871456361       -5.9691313187      -16.7975185669
 H         3.5615319084       -4.8597346075      -16.5123673702
 H         4.1143496298       -6.3404082686      -17.1522420052
 H         2.7097072229       -6.2079222487      -20.6123122945
 H         1.7480219046       -6.7595117569      -19.1185042534
 H         3.5529298353       -7.0205960437      -19.3367453909
 Na        3.4301862767       -1.8893034337      -17.1471769159
 Na       -6.7856095761       -1.7812014918       -8.1911466564
