232

 C         0.2259739362       -4.6786832543      -18.4935602008
 C         1.6975954871       -4.2252445481      -18.3089281943
 O         1.8818714997       -3.0587664521      -17.9664329248
 C         2.8817881270       -5.1838557779      -18.5817452285
 C         4.1526818344       -4.4272281508      -19.0820318019
 O         4.6651094098       -3.4466301238      -18.5299452297
 C         4.9593708524       -4.9614962414      -20.2574716041
 C         6.2300975603       -4.1816902868      -20.8455324760
 C         7.6009041270       -4.2711950510      -20.1538226450
 O         7.8262674402       -4.9115768466      -19.1705790015
 C         8.7304649257       -3.1147751288      -20.7379831697
 C         8.1808043438       -1.6557074677      -20.3145179339
 O         7.5553209039       -0.8655127126      -20.9920071412
 C         8.4303909265       -1.2896419917      -18.8702248442
 C         7.8824636429        0.0777522279      -18.5997125695
 C         6.4362575483       -0.0603678740      -18.2950709863
 O         5.9106626183       -1.1353658110      -18.0857150992
 C         5.5144024600        1.3120069551      -18.1613670949
 C         4.2829486819        1.0845691032      -17.2763610315
 O         3.4038391035        0.4087461971      -17.8037369001
 C         4.2940546765        1.5391888209      -15.8368757544
 C         3.0260584107        1.1469916830      -14.9872318252
 C         2.9731963828       -0.2710742780      -14.4695352166
 O         3.1542633570       -1.2217805261      -15.1766132367
 C         2.6591735541       -0.6481434750      -12.9406465643
 C         1.4341728996        0.2786083668      -12.4059735770
 O         1.5137136466        1.4925152608      -12.4390819934
 C         0.2049620760       -0.3167764536      -11.7602314553
 C        -0.8009990809        0.7566563676      -11.2012062479
 C        -2.2572811739        0.2281270195      -11.2398897868
 O        -2.5970497875       -0.6542661331      -12.0213797385
 C        -3.4228175324        0.8699759137      -10.2319468920
 C        -4.5832008950       -0.1373026307       -9.8541425487
 O        -4.9122747320       -0.2899326275       -8.6866573422
 C        -5.3788455541       -0.9649908763      -10.9676450668
 C        -4.7863630862       -2.3686389131      -11.2812563453
 C        -4.3894677856       -3.1265877747      -10.0029199793
 O        -5.1787901234       -3.3447308911       -9.1393625251
 C        -2.8746815815       -3.7293320016       -9.7205578562
 C        -2.2392389767       -2.4689421446       -8.8704330205
 O        -1.4921597110       -1.7023528794       -9.5138022185
 C        -2.6437857859       -2.1320319480       -7.4752726654
 C        -1.3788073236       -1.7839710594       -6.5503802297
 C        -1.6006941882       -2.2143731526       -5.1159447921
 O        -1.9793613322       -3.2840270049       -4.8152307872
 C        -1.4057137053       -1.0750595462       -3.9858040492
 C        -2.4641809715        0.0531183576       -4.1463814482
 O        -2.1226991562        1.1397610069       -4.5139129074
 C        -3.9100526575       -0.4971535385       -4.1207936837
 C        -5.0900193049        0.4694477536       -4.3212133434
 C        -6.1998921698       -0.0300908388       -5.3119241381
 O        -6.0961451157       -1.0812637244       -5.9204903422
 C        -7.3828239386        0.9768479058       -5.5670161123
 C        -8.3478001490        0.4999288115       -6.6531884818
 O        -8.0231928234       -0.1629041972       -7.6630801435
 C        -9.7741355188        1.0524644938       -6.7234457770
 C       -10.3719936633        0.9704295641       -8.1766359580
 C       -10.9352389267       -0.4299258430       -8.4189363290
 O       -11.4415730128       -0.9949199933       -7.4626777483
 C       -11.0549604073       -1.1151456705       -9.8819512940
 C        -9.8498748288       -2.1489482727       -9.7745106810
 O        -8.7384133676       -2.0000609390      -10.3288005164
 C       -10.0532768383       -3.3679525598       -8.8230657700
 C        -8.8510312118       -4.3137509065       -8.8555090001
 C        -8.2670286174       -4.5600399409       -7.4399119512
 O        -7.4375406202       -3.8151631109       -6.9675670149
 C        -8.5530800374       -5.9159156690       -6.7053171037
 C       -10.0929541655       -5.8679953371       -6.1314310498
 O       -10.9769853004       -6.4072902112       -6.7368924662
 C       -10.1924061053       -5.0936796618       -4.8341202118
 C       -11.7197479387       -4.6320175117       -4.5299697235
 C       -11.8223407027       -3.0731739260       -4.5019996922
 O       -10.9407642685       -2.3511866370       -4.8820620216
 C       -13.1841686215       -2.3816994527       -4.1182969230
 C       -12.8851090814       -1.8144703673       -2.6779751892
 O       -12.7830528592       -2.6064272736       -1.7540690702
 C       -12.6107672616       -0.3983456973       -2.5288907963
 C       -11.9522025458       -0.0387711638       -1.1406657146
 C       -11.4302844059        1.4879344191       -1.0553398432
 O       -11.2658881576        2.2543286650       -2.0380921674
 C       -11.0210876757        1.9001255915        0.4043070145
 C       -10.0858845354        0.7564113788        1.0420392683
 O        -9.3692641201        0.0713064761        0.3200724992
 C        -9.9611109655        0.6710359516        2.5568647885
 C       -10.2467045947        3.1881171143        0.2250993399
 C       -12.4132960365        2.2562144886        1.1292921517
 C       -13.4774980545       -1.3074389596       -5.2287318861
 C       -14.3596537399       -3.4564618590       -3.9793278428
 C        -8.3424977812       -6.9801988817       -7.7887471028
 C        -7.4344809188       -6.0119935655       -5.6192166818
 C       -12.3902955851       -1.9581452997       -9.9093587892
 C       -10.8472410811       -0.0905331622      -10.9764992492
 C        -8.2131195933        0.9755837103       -4.2136271591
 C        -6.9283192915        2.4469606492       -5.8671745102
 C        -1.5835051677       -1.8129216361       -2.5976077837
 C         0.0867252258       -0.5930672820       -4.0543666892
 C        -2.9691357259       -4.8988977623       -8.8206711744
 C        -2.1315051735       -3.9423691877      -11.0050689619
 C        -2.7949210380        1.3729648295       -8.8574952677
 C        -3.9926708642        2.0615117422      -11.1553101164
 C         2.3239504886       -2.1365088197      -12.7146491580
 C         4.0062089981       -0.2699974145      -12.1172083154
 C         6.3549781643        2.5656671597      -17.7523077863
 C         4.9537731965        1.6285184891      -19.5363482512
 C        10.1665019167       -3.5966320179      -20.2381657636
 C         8.9390577400       -2.9743771711      -22.2659004440
 C         3.2758461470       -5.7879583670      -17.1965123279
 C         2.5167078084       -6.4116403158      -19.4717621073
 H        -0.0138866831       -5.6714605916      -18.1134235341
 H         0.1689202890       -4.7661733017      -19.5472961925
 H        -0.5896997362       -4.0029867364      -18.2373417318
 H         4.2855688065       -5.0186171571      -21.0920666621
 H         5.3499879616       -6.0211315708      -19.9166190426
 H         5.9728319955       -3.0830684764      -20.8101091320
 H         6.3238161377       -4.4239378896      -21.8620426915
 H         9.4827424903       -1.3407881669      -18.6473251675
 H         8.0123449405       -2.1214792499      -18.3274752374
 H         8.0515872732        0.7045227202      -19.4929102734
 H         8.3916453924        0.6451918588      -17.8173048243
 H         4.3319960451        2.6278105830      -16.0586156557
 H         5.3146486603        1.1705206482      -15.4534652092
 H         2.1567990068        1.2532052724      -15.5812452780
 H         2.9850388550        1.9158815347      -14.1875990192
 H         0.3351494575       -0.9993616111      -10.9102989782
 H        -0.2457111829       -0.9282505751      -12.5242518249
 H        -0.7424080749        1.6396408258      -11.8684376331
 H        -0.4874441013        0.9910207374      -10.1990289797
 H        -5.3570031454       -0.3362713700      -11.9048717829
 H        -6.4652925433       -1.0158071791      -10.7764806560
 H        -3.9352241461       -2.2018444119      -11.9543243744
 H        -5.5602404195       -3.0310359416      -11.7285194409
 H        -3.2002247957       -2.9757995780       -6.9962545932
 H        -3.2985226143       -1.3027088109       -7.3965512607
 H        -1.1449323175       -0.7287291933       -6.6770438101
 H        -0.4695919141       -2.3870100216       -6.8546780575
 H        -4.0204656684       -1.1341451552       -3.1881063303
 H        -3.8817529551       -1.3238159189       -4.8045290342
 H        -4.7842535845        1.3876178257       -4.7519662387
 H        -5.5963841692        0.5355494864       -3.3207050009
 H        -9.8885597199        2.1069405322       -6.3600330257
 H       -10.4531793294        0.5040352042       -6.1226315711
 H        -9.5539581304        1.1901195528       -8.8595544678
 H       -11.0827807678        1.6991030596       -8.4946998125
 H       -11.0297842284       -3.8161997955       -9.1190961121
 H       -10.3823326900       -2.8970902984       -7.8263010947
 H        -8.0312456636       -3.9207249751       -9.5999376844
 H        -9.1284585611       -5.3119833771       -9.3204845072
 H        -9.6737039015       -4.1380401820       -5.0164839759
 H        -9.6968841059       -5.7164974369       -4.0938962053
 H       -12.0525801782       -5.0422402606       -3.5339281413
 H       -12.2932458767       -4.9746475156       -5.3404041904
 H       -13.5430717616        0.1512161677       -2.6167101845
 H       -11.8751485932       -0.0253467387       -3.2382439168
 H       -11.1533050997       -0.7559686869       -1.0662880601
 H       -12.7439924674       -0.2151275959       -0.4112169837
 H        -9.1860974035        0.0190521798        2.9671278010
 H       -10.9115287926        0.2443415222        3.0254575032
 H        -9.7828810657        1.7364488249        2.8866890662
 H       -10.8793831971        4.0262207639        0.4314326389
 H       -10.0063279077        3.2808190634       -0.8096312688
 H        -9.3573965865        3.4729678625        0.7487967538
 H       -13.0472956224        3.0130895950        0.5922985331
 H       -12.1931349668        2.6092923114        2.0951084042
 H       -13.0087413963        1.3676268240        1.2659644011
 H       -14.3348706275       -1.6190324564       -5.8381454630
 H       -12.5962716285       -1.2248309533       -5.8246230557
 H       -13.7218588870       -0.3127965659       -4.7611339697
 H       -15.2602317427       -2.8328741054       -3.8328129999
 H       -14.2573903267       -4.1461956587       -3.1922352375
 H       -14.6302841917       -3.8252496727       -4.9481462037
 H        -7.5798258973       -6.6672846062       -8.4705337420
 H        -9.2312339656       -7.1411398707       -8.3546440624
 H        -8.0197655134       -7.9563403635       -7.2598188722
 H        -7.6525858528       -5.1827440393       -4.8661634840
 H        -6.4808469936       -5.6912055154       -6.0739703954
 H        -7.2417819537       -6.9620743365       -5.1313890066
 H       -13.2305794273       -1.3895341530      -10.1667606587
 H       -12.5337361276       -2.1942349574       -8.8669659110
 H       -12.3440429729       -2.8938892054      -10.5024315559
 H       -10.1054861284        0.6009502474      -10.8073067823
 H       -11.8335342975        0.4378051167      -11.1914086007
 H       -10.5421829612       -0.6687384298      -11.8138817880
 H        -9.0242781600        1.6247244330       -4.2029478599
 H        -7.6953242069        1.1968111632       -3.3591728743
 H        -8.6207482823       -0.0125792330       -3.9752970572
 H        -5.9406334228        2.4413555136       -6.3634187894
 H        -6.9688454617        3.0707489314       -5.0431835411
 H        -7.6951173915        2.8926809487       -6.4893978923
 H        -0.7673374035       -2.4974903865       -2.5328158168
 H        -2.4590194418       -2.3012800402       -2.4558804275
 H        -1.4848400722       -1.0284843979       -1.8234335079
 H         0.2191276928       -0.0657076424       -3.1342799446
 H         0.2701546576        0.1081371381       -4.9063014680
 H         0.8099946801       -1.4507869011       -3.9521208752
 H        -1.9990009994       -5.3300852935       -8.5550577927
 H        -3.5910287005       -5.7103685918       -9.3231622702
 H        -3.6088554179       -4.5242354591       -7.9978898265
 H        -2.4395047684       -4.7417135756      -11.5601552723
 H        -1.0864726692       -4.1782018778      -10.8867404508
 H        -2.2209045762       -2.9767124642      -11.4954121954
 H        -3.0368598117        2.4053888658       -8.6135295602
 H        -1.6886117999        1.2527547979       -8.9143325918
 H        -2.9739236226        0.8576738717       -7.9820188533
 H        -4.7385549429        2.7254196047      -10.6582339947
 H        -4.4803342389        1.5223219286      -11.9708575319
 H        -3.2340413595        2.7759698238      -11.5575564759
 H         1.4029241173       -2.4794737437      -13.1606811023
 H         2.2057397079       -2.4543802139      -11.6856374387
 H         3.1233141294       -2.6991335696      -13.1666713694
 H         4.7558565330       -1.0643147757      -12.3349065513
 H         3.8338290396       -0.1543813369      -11.0209860398
 H         4.3930369452        0.6839723493      -12.5182702995
 H         5.7336072972        3.4103709125      -17.5561947221
 H         7.1646835596        2.7858995325      -18.5749176998
 H         6.8513651093        2.1877182723      -16.8510224159
 H         5.6702080768        1.2969578575      -20.2512056415
 H         4.7615946603        2.7693926296      -19.6405951702
 H         3.9918081892        1.2780438702      -19.7946973099
 H        10.2640350749       -4.7281288488      -20.1817001281
 H        10.2273689391       -3.1732556403      -19.2690385224
 H        10.9145411928       -3.1081761668      -20.8716383194
 H         9.6007627526       -2.0731847628      -22.1727576729
 H         8.0921632162       -2.7129179075      -22.8888110566
 H         9.4739786642       -3.8059527880      -22.6157035881
 H         2.3797162623       -6.2972601084      -16.8150568675
 H         3.4492552996       -5.0277407038      -16.4027835584
 H         4.2330643975       -6.3444304003      -17.2317957109
 H         1.8956336166       -6.0783722907      -20.2781841716
 H         1.9273852533       -7.0584496622      -18.8724012602
 H         3.3668265674       -6.9244862074      -19.8954329569
 Na        3.9280570799       -1.8438112138      -17.1669925947
 Na       -6.7222221000       -2.0310240801       -8.2211725161
