232

 C         0.5055935823       -4.5228711888      -18.6946880000
 C         1.8940793886       -4.2314598985      -18.4230545779
 O         2.2688701132       -3.2569821863      -17.7165671404
 C         3.0657914333       -5.3258888626      -18.6074001646
 C         4.3876739562       -4.5937794387      -19.0868748596
 O         4.8153902321       -3.6072119626      -18.5007972845
 C         5.2013320451       -5.2119984550      -20.3187299074
 C         6.0628765931       -4.0840713351      -20.9579046624
 C         7.3985339267       -4.0403976852      -20.2048497159
 O         7.5401582435       -4.7884683954      -19.2675060867
 C         8.5102749826       -3.0781883369      -20.9167556044
 C         8.0410803434       -1.5843956527      -20.4074618827
 O         7.0564667961       -1.0120874608      -20.8768526279
 C         8.6064835174       -1.0399912219      -19.1099493094
 C         7.8769708112        0.1533558114      -18.5393423203
 C         6.4100908930       -0.0024863518      -18.1748185762
 O         5.8892126777       -1.0718757842      -18.0321244767
 C         5.5049763308        1.3668104586      -18.2119360718
 C         4.2822835366        1.1783676307      -17.2600810942
 O         3.3029698404        0.5450755515      -17.6889858225
 C         4.3722885646        1.7096098888      -15.7648792129
 C         3.1078515000        1.3398592465      -14.9951984562
 C         3.2702106223       -0.2433298075      -14.5214376974
 O         3.7879854928       -1.0607181159      -15.2210300251
 C         2.4244921975       -0.6249569556      -13.1353742176
 C         1.3599242561        0.4077638801      -12.6227055846
 O         1.5387225108        1.6332642107      -12.6852655156
 C         0.1789789971       -0.1522932321      -11.9274829051
 C        -0.8031241135        0.8297235925      -11.2606910995
 C        -2.2277412243        0.2863889208      -11.2578742513
 O        -2.4934250362       -0.5205976948      -12.1101782986
 C        -3.3385635017        0.8553813303      -10.2850431038
 C        -4.5501189317       -0.1735921266       -9.9552954776
 O        -4.9505920562       -0.3198952941       -8.8146673353
 C        -5.2004213506       -1.0037324667      -11.0579413912
 C        -4.7199565732       -2.4329072534      -11.2375695499
 C        -4.3085222619       -3.2561101212       -9.9607549288
 O        -5.2329909906       -3.5864212958       -9.2125850855
 C        -2.7883027845       -3.7677841574       -9.7281992059
 C        -2.2152512031       -2.5597129357       -8.8441577226
 O        -1.3860807400       -1.7655774691       -9.3068043992
 C        -2.5549491656       -2.4643815055       -7.3991816005
 C        -1.6039200680       -1.6789774184       -6.4930326863
 C        -1.8200412404       -2.0998544457       -4.9877198513
 O        -2.2975284158       -3.1557825715       -4.7164775141
 C        -1.5247623505       -1.0673707299       -3.9073578476
 C        -2.5514442160        0.1039087857       -4.1016036478
 O        -2.2834924803        1.1758946571       -4.5709036977
 C        -4.0512383343       -0.3303634053       -3.9824150710
 C        -4.9359122751        0.7225038449       -4.5284326835
 C        -6.0436806055        0.1848368175       -5.4766717130
 O        -5.8205505395       -0.8777085673       -6.0198238110
 C        -7.4088030421        1.0006049292       -5.5593128532
 C        -8.3815840961        0.6515691432       -6.7409908417
 O        -8.0682141520       -0.1048414998       -7.6783514506
 C        -9.7482929985        1.2101251583       -6.7407271397
 C       -10.4760601208        1.0324875642       -8.1461675039
 C       -11.0513912517       -0.3699214901       -8.2600115200
 O       -11.4036825087       -0.9635089968       -7.2522460832
 C       -11.0643265295       -1.0497725890       -9.6771563471
 C        -9.9595487377       -2.1694567700       -9.6188737915
 O        -8.9269497576       -1.8983854255      -10.2115119316
 C       -10.0571139499       -3.3687513326       -8.5739449745
 C        -8.7817433017       -4.3883060443       -8.8023938640
 C        -8.0990826794       -4.8755731395       -7.4797345199
 O        -7.2763572543       -4.1644587534       -6.9646264376
 C        -8.4897655015       -6.2645600882       -6.7692553014
 C       -10.0101185130       -6.1192409836       -6.2284869582
 O       -10.8755935557       -6.6309626570       -6.8818852462
 C       -10.1769151198       -5.4245994369       -4.8510310536
 C       -11.6944268765       -4.7305639730       -4.7337225470
 C       -11.6887152394       -3.1629373723       -4.5766213890
 O       -10.6972455905       -2.5402806508       -4.8870476796
 C       -13.0130093034       -2.4828667729       -4.1274872805
 C       -12.7485342087       -1.7681419935       -2.5884416683
 O       -12.5650850038       -2.5991682607       -1.7160059021
 C       -12.7437679126       -0.2455905395       -2.4111738195
 C       -12.0717153303        0.0805924192       -0.9843974450
 C       -11.4652967134        1.4912082847       -0.8979714458
 O       -11.3773380943        2.2133700870       -1.8952166372
 C       -10.9697618855        1.9236470883        0.4789828901
 C       -10.3807028247        0.7196431441        1.2377307929
 O        -9.6402556355       -0.1020442170        0.7061493292
 C       -10.5409844243        0.7969008835        2.7345054443
 C        -9.9153857114        3.0006493694        0.3735953628
 C       -12.1115169062        2.5805522420        1.2966387443
 C       -13.5041545511       -1.3728770902       -5.2378021406
 C       -14.1337686965       -3.5575039249       -3.9197365413
 C        -8.5999595547       -7.4181239480       -7.7379454966
 C        -7.5467407387       -6.5704440940       -5.6120638273
 C       -12.5495708931       -1.5815279484       -9.9021442250
 C       -10.6470986015       -0.1107084175      -10.8045736365
 C        -8.1282203126        0.8615387277       -4.2078097109
 C        -7.0695445265        2.5172372904       -5.7031190206
 C        -1.6681736191       -1.5889562569       -2.4075116104
 C        -0.1151632587       -0.3637584104       -4.1093680069
 C        -2.8611379239       -4.9793148977       -8.8677108841
 C        -1.9890696360       -3.9031909448      -11.0219666090
 C        -2.6673903517        1.3042546637       -8.9989575935
 C        -3.9319353208        2.0688503061      -11.0977456534
 C         1.9814875012       -2.0703646824      -13.2915565870
 C         3.5962076720       -0.5502864257      -12.0567697278
 C         6.3458705870        2.6723290215      -17.8157616421
 C         5.0889269865        1.4940750388      -19.6253599088
 C         9.9316003245       -3.5252126645      -20.4761565015
 C         8.5016530047       -3.1749733174      -22.4759419582
 C         3.3657246536       -5.8547182464      -17.1852689561
 C         2.5222890500       -6.4378788286      -19.6002237586
 H         0.0924251646       -5.3867839067      -18.2177628873
 H         0.4130773273       -4.7012611297      -19.7905574185
 H        -0.1018413406       -3.6006095912      -18.5426887507
 H         4.5981226855       -5.5828625578      -21.1080298525
 H         5.7903146744       -6.0685255781      -19.8321528520
 H         5.6890138278       -3.0402862529      -20.7268040984
 H         6.0808814550       -4.1674291907      -22.0483082592
 H         9.6366939274       -0.8279658669      -19.3666934052
 H         8.6934524681       -1.8890036778      -18.3562087461
 H         8.0169076961        1.0981609139      -19.1191022096
 H         8.4002979558        0.4529946756      -17.6398952796
 H         4.4969513872        2.7526698832      -15.8729192666
 H         5.2351122275        1.1494502813      -15.4865326893
 H         2.2673970435        1.5271628396      -15.6335806836
 H         3.0730579168        2.0711657910      -14.1403045592
 H         0.6353654952       -0.7875444696      -11.1653423641
 H        -0.4308060157       -0.8102043398      -12.5171453950
 H        -0.7031122451        1.8412083607      -11.6999822333
 H        -0.5684041404        0.8560260516      -10.1796836777
 H        -5.1191491157       -0.4450095649      -11.9823257286
 H        -6.2746095066       -1.0482889860      -10.7970955817
 H        -3.8412990156       -2.3946552852      -11.9577346878
 H        -5.5179988705       -2.9644413786      -11.8328808116
 H        -2.5948877501       -3.4514918723       -6.8637931153
 H        -3.5328979930       -2.0120129804       -7.3350262322
 H        -1.7941013278       -0.6148250684       -6.5355141101
 H        -0.5730929168       -1.7418994168       -6.8783469103
 H        -4.4042273714       -0.7504535081       -3.0653608121
 H        -4.0081461287       -1.2528983924       -4.6020400396
 H        -4.3697638415        1.5662935088       -5.0030342137
 H        -5.4795824028        1.0415143674       -3.6560581670
 H        -9.8178097548        2.2986313500       -6.4666921656
 H       -10.3549378801        0.7653973536       -5.9705935778
 H        -9.8116542646        1.3010296921       -8.9128202008
 H       -11.3168983942        1.7943429488       -8.2746086206
 H       -10.9574888488       -3.8775049699       -8.6887196336
 H       -10.0605828087       -2.9569385017       -7.5438061932
 H        -8.0298562494       -4.0467266054       -9.4384987737
 H        -9.1266246957       -5.2244087062       -9.3755057115
 H        -9.4091049741       -4.6501806263       -4.8209076772
 H       -10.0466985131       -6.1330644096       -4.0362569454
 H       -12.0268408139       -5.3257521617       -3.8917448215
 H       -12.2300351780       -5.1266809577       -5.6118601395
 H       -13.7190029273        0.2438674016       -2.4655168835
 H       -12.0765158107        0.2151335046       -3.2003001240
 H       -11.3290641556       -0.7021039606       -0.8806435660
 H       -12.8438923380       -0.0303678035       -0.2237624048
 H        -9.8891729007        0.1393492467        3.2526805101
 H       -11.5196543577        0.4251552090        2.9693919989
 H       -10.2484365716        1.7413143799        3.1291954011
 H       -10.1045056829        3.9216963813        0.9312238601
 H        -9.5669906074        3.2908460646       -0.5805178170
 H        -9.0257850461        2.7582873782        0.9723474482
 H       -12.5773965973        3.3437056278        0.6890647602
 H       -11.7370448453        2.9889865107        2.2527905180
 H       -12.8944090945        1.8536951073        1.5710984488
 H       -13.0959973429       -1.7068381647       -6.2256299548
 H       -13.0599335020       -0.4226660328       -5.1090593877
 H       -14.5614406374       -1.2869913486       -5.2117150061
 H       -15.0655260479       -3.0572790838       -3.4310947868
 H       -13.7944263661       -4.2388656183       -3.0958415748
 H       -14.2074683569       -4.1790480812       -4.8425111978
 H        -7.6606457656       -7.9314824310       -7.9034780808
 H        -9.0452443191       -7.0986240520       -8.6522062864
 H        -9.2440638307       -8.2080394652       -7.2668148049
 H        -7.6299118855       -5.8760100137       -4.7474101225
 H        -6.5484761202       -6.5112135403       -6.0141305966
 H        -7.7933034203       -7.4843494510       -5.1019055024
 H       -13.2224664541       -0.7833720046       -9.7252145782
 H       -12.8625163189       -2.3852076091       -9.1829688652
 H       -12.6511767813       -1.9681363618      -10.9595398522
 H        -9.6305144286        0.0158607482      -10.9091913193
 H       -11.1289077213        0.9176255204      -10.6614745233
 H       -11.0788790707       -0.5583242284      -11.7183214832
 H        -8.9245747117        1.6288516202       -3.9753255910
 H        -7.3820194454        0.9046029666       -3.3761224689
 H        -8.6237784976       -0.0927157266       -3.9357553371
 H        -6.3841725665        2.7719809839       -6.5120803792
 H        -6.5791890746        2.7441921601       -4.7631326913
 H        -7.9684083804        3.1379263905       -5.6251456925
 H        -0.7509398605       -2.1007425050       -2.1343722384
 H        -2.5126298926       -2.2241985941       -2.2268413797
 H        -1.8380481587       -0.6162024683       -1.7497807970
 H         0.4309649303       -0.8054611948       -3.3542721035
 H        -0.0967500395        0.7388387583       -3.9473363956
 H         0.3655773464       -0.6301055697       -5.0226592754
 H        -1.9836456134       -5.0958357985       -8.3227553124
 H        -3.0816072729       -5.8054401911       -9.4686400010
 H        -3.7968645278       -4.8965744739       -8.3071566778
 H        -2.5358115319       -4.2534535589      -11.8669241409
 H        -1.0611394164       -4.5836837597      -10.8557939527
 H        -1.5819849874       -2.8509665082      -11.1444137206
 H        -3.3911470941        1.5985411043       -8.1854499862
 H        -2.1589710865        2.3062693092       -9.1525432649
 H        -1.8647284946        0.6877990375       -8.6930807736
 H        -4.9630507017        2.0808605841      -10.7969109941
 H        -3.7535901394        2.0086711150      -12.2109336239
 H        -3.5046589609        3.0274656124      -10.8590796635
 H         1.0103676794       -2.2919994305      -13.8042884540
 H         1.7888525802       -2.5153436161      -12.2993096307
 H         2.8037985190       -2.6260840978      -13.7060960892
 H         4.4563025557       -1.0844327115      -12.4279965121
 H         3.1952410001       -0.8239509905      -11.0929194300
 H         3.8799239296        0.4629018714      -11.9515106772
 H         5.6017991962        3.4025459970      -17.8681934532
 H         7.1935431615        2.9663656953      -18.4841839709
 H         6.7251514059        2.4799890075      -16.8685316081
 H         5.9212437497        1.1832008260      -20.2839681693
 H         4.7752328468        2.6133147544      -19.7076103901
 H         4.2299606712        1.0219981297      -19.9528383618
 H        10.0895514541       -4.3955033956      -21.1764453244
 H         9.9385508690       -3.8731745758      -19.4378057438
 H        10.6151195744       -2.6995346230      -20.7319548440
 H         9.5340499505       -3.0789113211      -22.8157462209
 H         7.8975218074       -2.3754312955      -22.9415450102
 H         8.0078099874       -4.1408247445      -22.6401396071
 H         2.5863939946       -6.1522437151      -16.5438986260
 H         4.1090995093       -5.2389901781      -16.6519659361
 H         3.9798817974       -6.7735612766      -17.3897495278
 H         2.4038331939       -5.9866200350      -20.6165409052
 H         1.4854065171       -6.6779875514      -19.3071462643
 H         3.0917073884       -7.3935322440      -19.5656080264
 Na        3.7628656007       -1.7663471965      -17.5723207299
 Na       -6.5212255174       -1.7749152574       -7.9390943932
