232

 C         0.9269783889       -4.4295572395      -19.2151705363
 C         2.1027492084       -4.2249728390      -18.2580299446
 O         2.1873461846       -3.1967222704      -17.5464899665
 C         3.2738940355       -5.2197251537      -18.4000174427
 C         4.1755905949       -4.3841861178      -19.5094785002
 O         4.6461894505       -3.3378679825      -19.1671038206
 C         4.5969773065       -5.1383387892      -20.7449911054
 C         5.7491091271       -4.4983123679      -21.4635670854
 C         7.1426158168       -4.1102895314      -20.5388762765
 O         7.3727734987       -4.8024303691      -19.5771781763
 C         8.0144469752       -2.9356931412      -21.1558746622
 C         7.4267171535       -1.5418861531      -20.4248713490
 O         6.3861355940       -1.0201296573      -20.6920893819
 C         8.4661329129       -0.8384878218      -19.4201255463
 C         7.8579037383        0.4659526166      -19.0274869874
 C         6.5884855802        0.2732195708      -18.2768383796
 O         6.3880982484       -0.7317516739      -17.6566787035
 C         5.4779420855        1.5833320929      -18.4435047308
 C         4.5228604147        1.2622792537      -17.3237375170
 O         3.6888700129        0.3645643715      -17.5127293514
 C         4.6759955156        1.8725918786      -15.8922856540
 C         3.6286844758        1.4014959830      -14.9313425401
 C         3.3854152198       -0.1006368260      -14.7153975107
 O         4.1235040111       -0.9210296164      -15.2121000766
 C         2.3159051538       -0.6265935444      -13.7619202619
 C         1.1142015558        0.3033219942      -13.2563692520
 O         1.1517242784        1.4757490801      -13.2664535133
 C        -0.2049615258       -0.4487629226      -12.6070212165
 C        -0.8641780215        0.4777060176      -11.5420082857
 C        -2.4095022651        0.3174732275      -11.5927956139
 O        -2.9485637668       -0.1604796177      -12.6166111839
 C        -3.2726586838        0.7847138796      -10.4130861495
 C        -4.2714204687       -0.3222492490       -9.9904960139
 O        -4.5208807989       -0.4338674249       -8.8075486663
 C        -5.0738933570       -1.1451346994      -11.1074292720
 C        -4.3796027997       -2.5100309497      -11.1307830448
 C        -4.1896776054       -3.4678389744       -9.8077923861
 O        -5.0576810821       -3.6356464090       -9.0147820827
 C        -2.7133691774       -3.9955888604       -9.6422049078
 C        -2.0622221177       -2.9955712195       -8.5603369285
 O        -1.4714501580       -2.0455526537       -8.9637284760
 C        -2.3323332607       -3.1539961093       -7.1066809901
 C        -2.3093711523       -1.7792873782       -6.3831296401
 C        -2.2273439710       -1.9816856059       -4.8371222448
 O        -2.5946044225       -3.0239044219       -4.2977412100
 C        -1.6467995645       -0.8698578129       -3.8799777824
 C        -2.7641173767        0.2679094558       -4.3759027115
 O        -2.4396546762        1.2373181744       -4.9956139985
 C        -4.1996002642       -0.1128517945       -4.1086944653
 C        -5.1730970318        1.1185625225       -4.4266999583
 C        -6.3623771239        0.5487435473       -5.3058649084
 O        -6.0664897235       -0.4978174877       -5.8641095246
 C        -7.7649256308        1.2019949784       -5.2818610550
 C        -8.5803005251        0.7587933489       -6.6588568719
 O        -8.1874925902       -0.1643339590       -7.3324646636
 C        -9.8099879880        1.5808521503       -6.9144482218
 C       -10.4235157392        1.3583749910       -8.3235841361
 C       -10.9892283444       -0.1398196833       -8.4199147140
 O       -11.7595239892       -0.4920467110       -7.5566535834
 C       -10.6117700592       -1.0326655699       -9.7020494708
 C        -9.3561828821       -1.8225455525       -9.2747098451
 O        -8.2455823971       -1.3365872094       -9.5999469977
 C        -9.3909723989       -3.0162018172       -8.2015568156
 C        -8.7342335004       -4.4013454812       -8.6056264954
 C        -7.8668811483       -5.0540687996       -7.4797247834
 O        -6.8179646333       -4.5143937671       -7.1385855725
 C        -8.4300071240       -6.3131851739       -6.8704301251
 C        -9.8598958353       -5.8519677057       -6.1520670581
 O       -10.8624067941       -6.0717511138       -6.8214877887
 C        -9.9734824239       -5.2339261917       -4.7582453748
 C       -11.3208433340       -4.9487525374       -4.3769884299
 C       -11.6391326640       -3.3984232080       -4.3144537024
 O       -10.8017730509       -2.6275586140       -4.7390891106
 C       -12.9472859114       -2.9045340000       -3.6429768915
 C       -12.6158164456       -2.1525472196       -2.2826284879
 O       -12.6140121368       -2.7221041538       -1.2175445879
 C       -12.0497945175       -0.7191865440       -2.3507591146
 C       -11.9116197905       -0.1910404624       -0.9050300209
 C       -11.0621152380        1.1985465158       -0.6815243373
 O       -10.6610427261        1.7567947943       -1.6930598654
 C       -10.9118833123        1.7841053134        0.7280464369
 C       -10.8812480729        0.7401135123        1.8171760748
 O       -10.2232130736       -0.2282283812        1.6286494816
 C       -11.6625873369        1.0206845653        3.1555257203
 C        -9.6621304011        2.6718384596        0.8757417532
 C       -12.0481731460        2.7861995969        0.8798292261
 C       -13.5973152053       -1.8575474318       -4.6785731940
 C       -13.9230472024       -3.9456632930       -3.3268115763
 C        -8.8608527852       -7.2812215490       -8.0052354811
 C        -7.4965361058       -7.0852554416       -5.9103237273
 C       -11.8585156212       -1.9514778438       -9.8839839266
 C       -10.4063494241       -0.2236098517      -10.9105760057
 C        -8.4218538759        0.6884001353       -3.9617468433
 C        -7.6889789473        2.7376790237       -5.1276074073
 C        -1.7537633623       -1.2216864611       -2.4292629800
 C        -0.2627529648       -0.2959125204       -4.3254872408
 C        -2.7892808692       -5.4613118990       -9.0752049245
 C        -1.9018131921       -4.0400437674      -10.9845594034
 C        -2.5175788402        1.1989573137       -9.1779370839
 C        -4.1002900836        1.9434153003      -11.1398290867
 C         1.6932983343       -1.9772661203      -14.3927307290
 C         3.1678647139       -1.0283630647      -12.4937810723
 C         6.2540524245        2.9347891094      -18.2169360980
 C         4.7825436670        1.5399507326      -19.8035651906
 C         9.6077650587       -3.1844182695      -21.0142128987
 C         7.8106996172       -2.6899156624      -22.6023386501
 C         4.0154620775       -5.3456459721      -17.0636569244
 C         2.8159027341       -6.6268093176      -18.9821214178
 H         0.3608289001       -5.4092422132      -19.2408730330
 H         1.3885459181       -4.4149774122      -20.1774447718
 H         0.1707702837       -3.6621845059      -19.2499272237
 H         3.8331316690       -5.3004221346      -21.3938286563
 H         4.7456142150       -6.1474911566      -20.3489910046
 H         5.5842339346       -3.5318176507      -21.9695114699
 H         6.0500818590       -5.2092755117      -22.1919627638
 H         9.3595339911       -0.6103557449      -19.9605665697
 H         8.6072931967       -1.4671925841      -18.5175410825
 H         7.5776730448        1.1242978610      -19.8819255843
 H         8.4868765300        1.0782029654      -18.3968179023
 H         4.7060914559        2.9554804726      -15.9882745502
 H         5.7232670137        1.5784144148      -15.6078668828
 H         2.7090620471        1.8248975034      -15.3464482554
 H         3.7240456802        1.9965807472      -13.9485375333
 H         0.1934552126       -1.4425591772      -12.2826728553
 H        -0.8846392345       -0.6713909074      -13.4774026876
 H        -0.5825483613        1.5473409574      -11.6777376523
 H        -0.4902268284        0.3237467478      -10.5429994232
 H        -4.8562944300       -0.7243068322      -12.0872167382
 H        -6.1094382151       -1.2824290186      -10.8866782504
 H        -3.4445193634       -2.3132002751      -11.6204036726
 H        -4.9224284315       -3.1091776841      -11.8076856835
 H        -1.5696706696       -3.7478037476       -6.5082107539
 H        -3.2677796448       -3.6598908965       -7.0604445821
 H        -3.1617738516       -1.1927413380       -6.6699221459
 H        -1.4472349080       -1.2431531899       -6.8185242051
 H        -4.1780578717       -0.3540044314       -3.0467468086
 H        -4.3835340289       -1.0740337215       -4.6167998620
 H        -4.6503246851        1.9645064288       -4.9513789401
 H        -5.4740455066        1.6677918564       -3.5409525366
 H        -9.6506936205        2.7148243200       -6.7303484126
 H       -10.5619811112        1.4635800666       -6.1500747537
 H        -9.5396224089        1.5247786752       -8.9905132048
 H       -11.3051637463        2.0444435098       -8.4132660032
 H       -10.4078044349       -3.2618985299       -8.0471245269
 H        -8.8642482541       -2.5630432869       -7.3522750067
 H        -8.0080319947       -4.2651933517       -9.4588545477
 H        -9.4925576384       -5.1619610375       -8.9265064953
 H        -9.3701821763       -4.2990275270       -4.8624617425
 H        -9.4112270484       -5.7385387991       -3.9597674809
 H       -11.4713420867       -5.4175039492       -3.3522920372
 H       -12.0425468967       -5.5463842288       -4.9613973878
 H       -12.7056540868       -0.0802131531       -2.8916489786
 H       -11.1513921027       -0.6099272600       -2.9489396072
 H       -11.5605339544       -1.0229782904       -0.2639170992
 H       -12.9345242123       -0.0581843334       -0.4484768971
 H       -11.0308909212        0.9193504093        4.0322034233
 H       -12.6022489665        0.4024209887        3.1772094166
 H       -12.0771208285        2.0674113625        3.0872379528
 H        -9.9008059234        3.2311416132        1.7978454156
 H        -9.6167193063        3.4774465523        0.0454380030
 H        -8.6310845155        2.1932643477        0.7896162161
 H       -12.1264499303        3.4597872048       -0.0126808618
 H       -11.9145443701        3.4130512730        1.7054024732
 H       -12.9091947092        2.1557585787        0.9150455404
 H       -14.3398935206       -2.3098729141       -5.2966742350
 H       -12.8808989804       -1.2204480225       -5.2102688661
 H       -14.2899753534       -1.1051941702       -4.1352529376
 H       -14.8200255999       -3.5595991160       -3.0673919511
 H       -13.5216086038       -4.4969374481       -2.5191736497
 H       -14.1483186631       -4.5618874042       -4.1396822803
 H        -7.9292124630       -7.5445940479       -8.4759917592
 H        -9.5115360849       -6.8840832370       -8.7699569910
 H        -9.3529280249       -8.2223406303       -7.5808849365
 H        -7.3406105262       -6.4958382167       -4.9861907184
 H        -6.5449711573       -7.2572956980       -6.4006717703
 H        -7.8246362505       -8.0878648114       -5.7396770159
 H       -11.6293856272       -2.7122152019      -10.6082962434
 H       -12.6936642416       -1.3713413761      -10.2103399562
 H       -12.2092391904       -2.4731581841       -8.9901120026
 H        -9.3501977372       -0.0635964618      -11.1671255201
 H       -10.8888852642        0.7651905154      -10.7976074078
 H       -10.8517459562       -0.6979788787      -11.7616108130
 H        -9.3711151661        1.1253335954       -3.6939401064
 H        -7.8334865330        0.8155258641       -3.0562925976
 H        -8.6912171482       -0.3790664589       -4.0757448872
 H        -8.5195964762        3.0981218378       -4.4405501697
 H        -7.7080173968        3.1622739161       -6.1307271549
 H        -6.7173419453        2.9414274297       -4.6426066966
 H        -0.7364439813       -1.4517412266       -1.9486668394
 H        -2.3679204482       -2.1920741649       -2.2360909348
 H        -2.0970310319       -0.4793372442       -1.7590164274
 H        -0.2315280965       -0.2553953900       -5.4275068008
 H         0.5345403028       -0.9690021060       -4.0004755526
 H        -0.0710448994        0.7494634113       -3.9057572882
 H        -1.7683454119       -5.6573440259       -8.6040618580
 H        -2.7537301038       -6.2111970058       -9.9287056418
 H        -3.4847353709       -5.5099031699       -8.2816091666
 H        -2.6667188916       -4.1796118723      -11.7540265372
 H        -1.2138162935       -4.8394090416      -10.9741972724
 H        -1.4203351342       -3.0983859160      -11.1588551095
 H        -3.1428335465        1.2476252789       -8.3227331576
 H        -1.9867699850        2.1400547334       -9.4367197718
 H        -1.8812228643        0.3822239733       -8.8815850085
 H        -5.1469452684        1.8117862947      -10.8701634741
 H        -4.0712897112        1.7744446729      -12.1894087409
 H        -3.6484274963        2.8995826906      -10.7751641584
 H         0.8987715922       -1.6276790425      -15.0087956694
 H         1.3393110645       -2.5749882141      -13.5812506857
 H         2.3525273217       -2.5207473764      -15.0455652035
 H         4.0344753678       -1.5967225608      -12.8017743852
 H         2.5699568609       -1.8197048612      -12.0525573532
 H         3.3612033167       -0.1634228517      -11.8750395557
 H         5.4681696820        3.6560150243      -17.9814392636
 H         6.7158254274        3.2260684468      -19.1963092242
 H         6.8578678308        2.9595741892      -17.2810143681
 H         5.3079440332        1.0029016075      -20.6251755634
 H         4.6252501054        2.5034768703      -20.2503676913
 H         3.7791160614        0.9856987020      -19.7976725636
 H         9.8100235900       -3.8151550486      -21.8616777583
 H         9.7826555638       -3.6913669617      -20.1252046867
 H        10.2021223880       -2.3237257132      -21.1906797514
 H         8.6042329282       -1.9520650451      -22.9684046696
 H         6.8275677091       -2.4402070656      -22.9766537901
 H         8.1548419750       -3.5584421163      -23.0502896129
 H         3.3827005656       -5.4596301052      -16.1269843343
 H         4.5688268812       -4.4512966756      -16.8984723638
 H         4.6444554544       -6.2161801907      -17.0401199958
 H         2.3124738125       -6.5688443739      -19.9242002797
 H         2.2441191251       -7.1458311508      -18.2393110914
 H         3.6601866726       -7.2274701022      -19.2701051687
 Na        4.3775855011       -2.0554668918      -17.1214688261
 Na       -6.2834369837       -1.7486756433       -7.7827152161
