232

 C         0.8725235959       -4.1654367358      -18.4633799030
 C         2.3188166736       -3.8030002418      -18.0349793719
 O         2.4352438841       -2.6929569227      -17.6788334489
 C         3.5996488368       -4.7665312575      -18.1596647602
 C         4.3372547797       -4.1813420570      -19.3956017734
 O         4.7392034776       -2.9905186981      -19.5286893804
 C         4.7492091706       -5.0707298569      -20.6822230364
 C         5.4827945192       -4.1964470530      -21.6978390276
 C         6.9654956937       -4.0131405992      -21.2167885996
 O         7.2500968720       -4.4530543548      -20.1073807968
 C         8.0661484398       -2.9145123968      -21.6229308954
 C         7.5969826517       -1.6338366915      -20.8694188032
 O         6.4359293363       -1.2733174079      -20.9655049207
 C         8.4539801134       -0.9425370884      -19.8347053626
 C         7.7448573651        0.3534151083      -19.1763301281
 C         6.4073340781        0.2137322484      -18.3693783070
 O         6.2531287593       -0.8629306844      -17.8242487930
 C         5.4099077770        1.3582193714      -18.3292323234
 C         4.2211098374        1.1337584777      -17.2892835701
 O         3.2455865434        0.4879152446      -17.5837089126
 C         4.3317482045        1.6888701091      -15.8217562754
 C         3.2486917212        1.1398144375      -14.9399097999
 C         3.3543274740       -0.2936555202      -14.4910470821
 O         4.2982002021       -1.0043487012      -14.8922652290
 C         2.1371071825       -0.9608616568      -13.8209941926
 C         0.9190104406        0.0184616744      -13.4164466348
 O         1.0932056043        1.2246377467      -13.2885320154
 C        -0.5071630337       -0.6203879953      -13.0785326430
 C        -0.9888340101        0.1258042162      -11.8408542281
 C        -2.5250164223        0.2462959623      -11.8067038196
 O        -3.2036650856       -0.1570879769      -12.6987296114
 C        -3.2913702217        0.6435977325      -10.5062388981
 C        -4.3660765784       -0.3738056194       -9.9998217286
 O        -4.6328473880       -0.4644750399       -8.7868930339
 C        -5.0688791297       -1.3412428063      -10.9763065327
 C        -4.1606713745       -2.6130254721      -11.1604475812
 C        -4.0564363012       -3.3638776978       -9.8328343574
 O        -4.9766730498       -3.3283290733       -9.0405983102
 C        -2.8073091114       -4.2410129467       -9.5888886520
 C        -1.9661962852       -3.1818532647       -8.7145520430
 O        -1.2963622258       -2.2199523506       -9.1910754840
 C        -2.3550437508       -3.2278762352       -7.1859487652
 C        -1.8556797400       -1.9966822152       -6.3898180945
 C        -2.1405112294       -2.0775094313       -4.9325870695
 O        -2.3727761191       -3.1129940360       -4.4137705649
 C        -1.8531528774       -0.7255358433       -4.0625116304
 C        -2.9893377882        0.2725304704       -4.4021113581
 O        -2.9244980491        1.1239268305       -5.2956348981
 C        -4.2190464256        0.1959843366       -3.5122068187
 C        -5.4354968314        1.0757527721       -4.0396733005
 C        -6.3785592505        0.3565127733       -4.9678312601
 O        -5.9915947389       -0.5936669423       -5.6163626494
 C        -7.8939851662        1.0644380189       -5.1532432072
 C        -8.5692779091        0.6588487975       -6.4186481420
 O        -8.3015971022       -0.3218809184       -7.0838806754
 C        -9.7225613913        1.5435054676       -7.0706252816
 C       -10.1925381775        1.3277334397       -8.5150951297
 C       -10.9954374863        0.1169067039       -8.8943638633
 O       -12.0511921014       -0.1085845540       -8.3278826540
 C       -10.4470660524       -1.0122333482       -9.8727541822
 C        -9.2066815869       -1.5887104808       -9.1236358793
 O        -8.0291678433       -1.3646029527       -9.4695078929
 C        -9.5106300996       -2.6716865797       -8.0512099848
 C        -8.7376577616       -3.9786883595       -8.4009665021
 C        -7.8944026498       -4.4585595260       -7.2481739953
 O        -7.0703137658       -3.7463384741       -6.6865467295
 C        -8.3544676826       -5.8515989695       -6.6744774624
 C        -9.7297755283       -5.5835334468       -5.9994865412
 O       -10.7545695436       -5.4874318662       -6.6366819458
 C        -9.5965215423       -5.2536845997       -4.4738748097
 C       -10.8648908635       -4.9152630761       -3.8231745045
 C       -11.4078872153       -3.4788419864       -4.0957766640
 O       -10.6989885076       -2.6767267693       -4.6767686187
 C       -12.7179259025       -3.0019974848       -3.5320887438
 C       -12.5321717818       -2.3576362419       -2.1686490347
 O       -13.1651007600       -2.8234082643       -1.2485198150
 C       -11.5923352939       -1.0986599907       -1.9426094472
 C       -11.3164756608       -0.5405250873       -0.5273546472
 C       -10.6484902263        0.7553960101       -0.5631464015
 O        -9.8125564722        0.9413828641       -1.4208710861
 C       -10.9189554348        1.7334163003        0.7004787357
 C       -11.1476096731        0.8191665403        1.9784140462
 O       -10.4334022665       -0.1847565402        2.1456474200
 C       -12.1610602985        1.1865008491        3.0585723333
 C        -9.7891906095        2.7057467705        0.9395839304
 C       -12.2421074779        2.4435094921        0.3460079247
 C       -13.5769570910       -2.1554869706       -4.3943489213
 C       -13.5733349390       -4.3219853853       -3.2219413696
 C        -8.5364672499       -6.7552008785       -7.9419465633
 C        -7.2799396628       -6.5286961531       -5.7813421800
 C       -11.5127526308       -2.0164279040      -10.0149685602
 C        -9.9125398816       -0.4696901918      -11.2658266424
 C        -8.7312873546        0.3711021959       -3.9694070570
 C        -7.7157259547        2.6240087059       -4.9566648707
 C        -1.8382581345       -1.1669297135       -2.6022242883
 C        -0.5625209705       -0.1230086295       -4.4324657167
 C        -3.1521530756       -5.5461039001       -8.8415635455
 C        -1.9393886855       -4.5393087189      -10.8598421630
 C        -2.5135847307        1.1190762833       -9.2013559791
 C        -4.2337870141        1.8291117324      -11.0503359424
 C         1.6110190759       -2.1527083928      -14.6965880817
 C         2.6629698909       -1.5409005393      -12.4678873115
 C         6.0974891521        2.6973665236      -18.0967574959
 C         4.7104217452        1.3257894778      -19.7235975040
 C         9.4716460026       -3.3891884503      -21.1474452823
 C         7.9372164594       -2.6284563712      -23.1361440646
 C         4.5486953654       -4.6657734896      -16.9177500230
 C         3.2609084527       -6.3022105608      -18.4823918838
 H         0.1508534015       -3.8623943831      -17.7396130976
 H         0.6802577341       -5.2180362110      -18.7457422842
 H         0.5793074577       -3.5049725873      -19.2743523924
 H         3.9442462809       -5.5909127181      -21.1824423594
 H         5.2566838881       -5.8445423708      -20.2279394269
 H         5.0159500013       -3.2301077455      -21.6976367296
 H         5.4599404162       -4.5473360121      -22.7731001815
 H         9.3332046318       -0.4155719146      -20.3192467851
 H         8.8170477179       -1.7077936362      -19.1736427405
 H         7.5608108233        0.9896060662      -20.0263396149
 H         8.4493972809        0.8029750829      -18.4476528693
 H         4.4422242770        2.7603090752      -15.6636471883
 H         5.2819258308        1.2653429716      -15.4682436469
 H         2.2164280162        1.2573470536      -15.4402593761
 H         3.1759124908        1.8876428266      -14.1333470901
 H        -0.2918156908       -1.7083457725      -13.0719664794
 H        -1.2997966042       -0.4055370850      -13.8711831055
 H        -0.6072277628        1.1540368461      -11.8192757657
 H        -0.7440699375       -0.2161625649      -10.8604411368
 H        -5.1653050247       -0.9422915671      -11.9720249077
 H        -6.0232093551       -1.6056303207      -10.5698881084
 H        -3.2245187950       -2.2359997447      -11.4719225529
 H        -4.6053977268       -3.3057791688      -11.8421377168
 H        -2.1552273015       -4.1814435052       -6.6756080003
 H        -3.4619770914       -3.2130357693       -7.0546190451
 H        -2.3891384116       -1.1332240965       -6.7837917046
 H        -0.8090892836       -1.9482047458       -6.5735408037
 H        -3.8910983977        0.7163758054       -2.5508253600
 H        -4.6325707491       -0.7605604651       -3.2967042733
 H        -5.0911714046        1.9440343103       -4.6121565401
 H        -5.9991335391        1.4555116142       -3.0966856837
 H        -9.4556595160        2.6132982031       -6.9730666003
 H       -10.6289861084        1.5059839084       -6.3786513893
 H        -9.3039776340        1.5181229802       -9.2292569072
 H       -10.9206075164        2.1384828472       -8.6854449656
 H       -10.5960135513       -2.9560559864       -7.9344547899
 H        -9.2069451883       -2.3253208424       -7.0967209542
 H        -7.9413568208       -3.6933491498       -9.1533996498
 H        -9.4250708367       -4.7734661312       -8.6797216226
 H        -8.8052327969       -4.4853203002       -4.3419041791
 H        -9.1058881284       -6.0757860743       -3.9485656236
 H       -10.9195070640       -5.1173632913       -2.6997783514
 H       -11.6250330267       -5.5938989027       -4.2974566066
 H       -12.1885628312       -0.3968047550       -2.5286190465
 H       -10.6406364789       -1.1621758413       -2.4367961534
 H       -10.7889378818       -1.2221925742        0.1521038706
 H       -12.2853205218       -0.3664831436        0.0076504724
 H       -11.5847797897        0.9318387744        4.0034621807
 H       -13.1155097865        0.6434880339        3.0289659094
 H       -12.4851030375        2.2086067554        2.8547657045
 H        -9.7535303085        3.0819578697        2.0267233283
 H        -9.6977244230        3.4776096991        0.1394250858
 H        -8.8902208902        2.0198497815        0.8446340664
 H       -11.9745782929        2.7351746988       -0.6467952396
 H       -12.4757443202        3.2924629473        0.9957794304
 H       -13.1204507820        1.8007538531        0.3077238044
 H       -13.8847879158       -2.8101138470       -5.2459282509
 H       -13.1664585207       -1.2369617474       -4.9115514602
 H       -14.4953792584       -1.8643730937       -3.9143522668
 H       -14.5811273843       -4.1550089878       -2.8956349536
 H       -13.1898654909       -4.9373045190       -2.5044091360
 H       -13.6633414294       -4.7912446527       -4.1370959422
 H        -7.9858202780       -6.2939311583       -8.7865306648
 H        -9.6035622635       -6.6507271335       -8.2838489752
 H        -8.3880957332       -7.7657835481       -7.8079328811
 H        -7.2431494911       -6.0920644059       -4.8077951968
 H        -6.2497517929       -6.3615066541       -6.1574230405
 H        -7.4508905102       -7.6329658355       -5.7893303587
 H       -11.2870612322       -2.9136039223      -10.6483114228
 H       -12.3527504229       -1.5548085183      -10.5219244047
 H       -11.8746310701       -2.3744528166       -9.0908507945
 H        -9.4618138297        0.5101656894      -11.0203852422
 H       -10.7377930750       -0.2234424218      -11.8852479125
 H        -9.1754602216       -1.0332039021      -11.8543563477
 H        -9.5160128034        1.0862698367       -3.6755318047
 H        -8.1602892329        0.1182624926       -3.0735501556
 H        -9.2455507080       -0.5813487585       -4.1959996574
 H        -8.5525518951        3.1606980118       -5.3474659098
 H        -6.7988920232        3.1027589852       -5.4414464205
 H        -7.5910717008        2.7715655972       -3.8712460292
 H        -1.5680409946       -2.2085566369       -2.3757648768
 H        -2.8773132667       -1.0652846975       -2.1754977055
 H        -1.2407241259       -0.5932438954       -1.8033492002
 H        -0.6118546733        0.1163014579       -5.5382786292
 H         0.2544927743       -0.7954450474       -4.1878832387
 H        -0.3236551618        0.8286679719       -3.9830100605
 H        -2.2455715928       -5.9112354731       -8.3101697014
 H        -3.5544209788       -6.3339129952       -9.5102531131
 H        -4.0438805494       -5.2741644124       -8.1400983895
 H        -2.5856935711       -5.0869823875      -11.5117070198
 H        -1.1715977288       -5.2465100557      -10.6747171732
 H        -1.5540312275       -3.6798858565      -11.3030600055
 H        -2.9950664386        0.7262332142       -8.3070678388
 H        -2.4679032266        2.1599213222       -9.2579765425
 H        -1.4564374912        0.7634998211       -9.2823897353
 H        -3.9410654165        2.6872209979      -10.4890636715
 H        -5.2336562985        1.4381391363      -10.9165356898
 H        -4.0160790785        2.1362049071      -12.0648828227
 H         1.1548923535       -1.8665263688      -15.6067783507
 H         0.8971670111       -2.6676297566      -14.1055927137
 H         2.4611745235       -2.8044221618      -14.8036778403
 H         3.6218824630       -2.0114690652      -12.7170852862
 H         2.0140010033       -2.2734552993      -12.0088650397
 H         2.8045966571       -0.7134859128      -11.7383635570
 H         5.1745387181        3.3606697356      -17.9658908311
 H         6.6941320847        3.0432805357      -18.9101426491
 H         6.7180142354        2.8155078659      -17.1618284236
 H         5.1686159643        1.9659760735      -20.5137314888
 H         3.6356207354        1.6384548841      -19.8806918603
 H         4.8070094174        0.3734172193      -20.1857532851
 H        10.1088436310       -3.8259664915      -21.8677411472
 H         9.3800780042       -3.9738558466      -20.2354761437
 H         9.9316394475       -2.5000125753      -20.8553831588
 H         8.5683194920       -1.9614136720      -23.5904587415
 H         6.9461912623       -2.2180467735      -23.3126268443
 H         8.0158582545       -3.6144135325      -23.7531403613
 H         4.1840936815       -5.1748850258      -16.0755211127
 H         4.6550505190       -3.6262012243      -16.5318327723
 H         5.5757941205       -4.8782323974      -17.2417862702
 H         2.6740746667       -6.6552827497      -19.2952664249
 H         2.7126585069       -6.6634951094      -17.6311130839
 H         4.2122792836       -6.8072602182      -18.4791129572
 Na        4.2371272593       -1.5492706793      -17.7060466219
 Na       -6.3423100858       -1.5948475348       -7.7829477239
