232

 C         0.9019583178       -4.9735545362      -18.1304778583
 C         2.1721041231       -4.0427769473      -17.9516058375
 O         2.0243763463       -2.9530137714      -17.5085859680
 C         3.6022148981       -4.6299454690      -18.2852943188
 C         4.0191994921       -3.8454223399      -19.4679736254
 O         4.3011306457       -2.6058614932      -19.4746372608
 C         4.5461601057       -4.6450808031      -20.7253928905
 C         5.5937381347       -4.0038471889      -21.5672771373
 C         7.0107187137       -3.9368679187      -21.0133011509
 O         7.5425892525       -4.6618093943      -20.2280127699
 C         7.9349347482       -2.8327947089      -21.8143764219
 C         7.5590332935       -1.4410398767      -21.1244278194
 O         6.6858030970       -0.7857148216      -21.6437236344
 C         8.2843555080       -0.9957841313      -19.8209124754
 C         7.7992221357        0.3745673121      -19.3674824155
 C         6.5293082920        0.4270302453      -18.3586698171
 O         6.4241964293       -0.5740919182      -17.6657829723
 C         5.4594872208        1.5822135230      -18.5047712201
 C         4.3663523315        1.1643059610      -17.4078107187
 O         3.3116190041        0.6383126100      -17.6698607039
 C         4.5446654461        1.4264723556      -15.8803419037
 C         3.3169725365        0.9877189435      -15.0874729984
 C         3.0447942903       -0.4956811149      -14.8761351694
 O         3.7974533573       -1.3225864307      -15.4382849774
 C         1.9616772627       -1.0772888673      -13.9224471372
 C         0.9222856392       -0.1011669304      -13.2668874018
 O         1.1003141026        1.0452805188      -12.9448079484
 C        -0.4857274296       -0.7606763721      -13.0464282616
 C        -1.2183707433       -0.2733211453      -11.7773078225
 C        -2.6827842354        0.1218329326      -11.8919341657
 O        -3.2278188994        0.2035032134      -12.9506820790
 C        -3.4746712464        0.6852494462      -10.5926968812
 C        -4.4065124470       -0.3702763599       -9.9706269971
 O        -4.6840542433       -0.4156032072       -8.7911872214
 C        -5.1427883087       -1.3396117613      -10.9933012443
 C        -4.4602120260       -2.8043512634      -11.1640853005
 C        -4.2036987977       -3.6230916064       -9.7522968552
 O        -5.2042156319       -3.6143318876       -9.0236757308
 C        -2.9749154708       -4.3207029012       -9.4159209948
 C        -1.9369922772       -3.2989645555       -8.6413918395
 O        -1.0590495426       -2.7989677020       -9.3247403145
 C        -2.3994591980       -2.9519732554       -7.2287877164
 C        -1.6587084868       -1.8248167455       -6.5090190721
 C        -1.9984745315       -1.9449061846       -5.0538164969
 O        -2.4086122845       -2.9654884914       -4.5662975167
 C        -1.8546153639       -0.6250343166       -4.0490029826
 C        -3.2765386197       -0.0040414510       -4.3973216548
 O        -3.5142359607        0.5168205225       -5.4349431712
 C        -4.3712031136        0.0847497160       -3.2661662346
 C        -5.6110372929        0.9864883171       -3.8056306690
 C        -6.3829723235        0.5181536682       -4.9680337149
 O        -5.9260619649       -0.3349266185       -5.6537200573
 C        -7.8858214431        0.9995334110       -5.1184149938
 C        -8.3476129266        0.8805785961       -6.5527484236
 O        -7.9485238976       -0.0132596117       -7.2771279268
 C        -9.5428268891        1.6852485768       -7.1772197130
 C        -9.6033306982        1.3465680141       -8.6458232538
 C       -10.6976226719        0.3161291025       -9.0118872663
 O       -11.7857073616        0.3059367399       -8.4824670736
 C       -10.3488637326       -0.8597801070      -10.1581445518
 C        -9.2886227152       -1.7139715908       -9.5246424095
 O        -8.1094302202       -1.5483596595       -9.7943249908
 C        -9.6248291870       -2.6805381357       -8.3556792272
 C        -8.6909878517       -3.9084890285       -8.4393827578
 C        -7.8725045563       -4.2768357509       -7.1795715694
 O        -7.1404315773       -3.4577569623       -6.6944058160
 C        -8.0141696661       -5.6399402379       -6.3972988178
 C        -9.3338596224       -5.4037081224       -5.5062489896
 O       -10.3647095849       -5.4027402757       -6.1837693952
 C        -9.3189285118       -5.1665269806       -3.9489533503
 C       -10.6774386438       -5.0221073265       -3.4305238230
 C       -11.2862526355       -3.6766832721       -3.9685650572
 O       -10.4285077696       -2.9445215261       -4.4363345780
 C       -12.7169882017       -3.2124675276       -3.4024319699
 C       -12.4495382804       -2.6413816000       -1.9560545051
 O       -13.2173180471       -2.8945513918       -1.0096730886
 C       -11.2827972913       -1.5397638750       -1.7393115759
 C       -11.4132334530       -0.8690055680       -0.3864405713
 C       -10.4308542021        0.2683407328       -0.2508093657
 O        -9.4205069504        0.3855303270       -0.9566110547
 C       -11.0256453459        1.4610793250        0.6821268575
 C       -11.3110746153        0.8693332466        2.0555690750
 O       -10.6392911800       -0.0802029460        2.4513950294
 C       -12.3963237564        1.4537943574        2.9693913299
 C        -9.9285309054        2.6414348129        0.7748127186
 C       -12.2878287547        2.0194035270        0.0718855048
 C       -13.2214305770       -1.9574890221       -4.2587785047
 C       -13.8500296352       -4.2658685365       -3.2836457905
 C        -8.3025915247       -6.8878908105       -7.3185765884
 C        -6.6351090342       -5.8073996024       -5.5913391363
 C       -11.6398421470       -1.6000752547      -10.4920239679
 C        -9.8950908984        0.0376366922      -11.3250782055
 C        -8.7507616870        0.1682257033       -4.1689796279
 C        -8.0259235853        2.4852348007       -4.6367565333
 C        -1.7039203226       -1.1144031341       -2.5799828036
 C        -0.7022412609        0.3121959194       -4.4472289021
 C        -3.4336438717       -5.5136622253       -8.4844044053
 C        -2.2902715964       -4.8576344208      -10.6966870190
 C        -2.5936723499        1.2144464142       -9.4150195019
 C        -4.3389074834        1.9232317721      -11.0274847761
 C         1.3455132706       -2.1688331658      -14.7804269715
 C         2.7555572907       -1.6645428654      -12.7198882592
 C         6.1597580014        2.9675379116      -18.1971029490
 C         4.7948245634        1.5442025159      -19.8577841443
 C         9.3730038461       -3.0659682539      -21.4362219664
 C         7.6586100597       -2.7860413008      -23.3312514945
 C         4.5433622300       -4.2846042249      -17.0721987439
 C         3.6480781548       -6.1526982211      -18.5345696040
 H         0.1265177593       -4.3190541824      -18.3015767255
 H         0.6897796800       -5.5293307532      -17.2016705636
 H         0.8571816925       -5.7189422376      -18.9225037874
 H         3.6470870948       -5.0667798312      -21.2488434514
 H         5.0338944621       -5.4811450813      -20.4114479460
 H         5.4368000755       -3.0121188385      -21.9552818882
 H         5.6690518053       -4.6769038518      -22.5143896285
 H         9.3486142168       -0.7983964445      -20.1174484666
 H         8.4216231103       -1.6975084252      -19.0351503065
 H         7.5584526189        0.9403662642      -20.2374435350
 H         8.6444733910        0.7594210683      -18.7551319466
 H         4.7909514948        2.4759511648      -15.6417615220
 H         5.3268874341        0.8163091661      -15.4019464278
 H         2.4396607444        1.5595633634      -15.5508661354
 H         3.3611656005        1.4304331755      -14.1120195145
 H        -0.3154225113       -1.8162163211      -12.9992232179
 H        -0.8710932046       -0.5469566416      -14.0222755850
 H        -0.8631856401        0.6872697410      -11.4567940540
 H        -1.0817399245       -0.9545171418      -10.9801272213
 H        -5.0993839143       -0.8991731081      -12.0015567273
 H        -6.2403745500       -1.4030856889      -10.8016898369
 H        -3.5568167267       -2.5822193329      -11.6548110871
 H        -5.0931995286       -3.4281753146      -11.7682645123
 H        -2.5309337040       -3.8030116596       -6.5828401756
 H        -3.4616240249       -2.6534075381       -7.2288180852
 H        -1.9827107829       -0.8147356354       -6.8765014737
 H        -0.5844654085       -1.9189860696       -6.5462984413
 H        -3.9985006888        0.6177402396       -2.3108273310
 H        -4.7598546119       -0.8884695307       -3.0107822355
 H        -5.1188088192        1.9064747600       -3.8734583145
 H        -6.3878865111        0.8984213295       -2.9885424826
 H        -9.3734346330        2.7177834196       -7.0185462885
 H       -10.4971953165        1.2891098765       -6.6970260194
 H        -8.6521634441        0.9222096688       -9.0787287069
 H        -9.6638076274        2.2479829976       -9.2836213749
 H       -10.7239431549       -2.9737069164       -8.4140636946
 H        -9.6191624044       -2.1264659730       -7.4306500685
 H        -7.9343520916       -3.5541052192       -9.2722657068
 H        -9.1876341042       -4.8686332065       -8.6909864259
 H        -8.7332487540       -4.2490096119       -3.7586777801
 H        -8.7416413846       -5.9089992368       -3.3884225116
 H       -10.5865199535       -4.8438921242       -2.3396940862
 H       -11.3970760102       -5.8179427149       -3.6692107787
 H       -11.1938479323       -0.8141237804       -2.5212452218
 H       -10.4482026487       -2.2055806993       -1.6748623100
 H       -10.9946744774       -1.5435130944        0.3944641427
 H       -12.4847102288       -0.6732725346       -0.2048749379
 H       -12.6131917124        0.6614960789        3.7313358571
 H       -13.3745299002        1.7548850830        2.5633346958
 H       -11.8718093978        2.3293046565        3.4107972743
 H       -10.4813476544        3.4541005395        1.0942428679
 H        -9.5534728031        2.8798210200       -0.1911792104
 H        -9.3345665159        2.3834057299        1.5936252986
 H       -11.9661990060        2.4515931500       -0.8310169053
 H       -12.7675253067        2.8279346403        0.7184824311
 H       -13.0133762038        1.1864316931       -0.0442966922
 H       -13.7849840171       -2.3357767851       -5.1688998950
 H       -12.5054511960       -1.3209213625       -4.7852309657
 H       -13.7773634042       -1.3815864766       -3.6068603527
 H       -14.6894976803       -3.8706828152       -2.6218432716
 H       -13.4928097286       -5.1676627403       -2.7750874894
 H       -14.1906795787       -4.6531791114       -4.2313570644
 H        -7.4795180566       -7.1471911700       -8.0024605831
 H        -9.1935049785       -6.6504381977       -7.8989828062
 H        -8.4827478585       -7.8365005085       -6.8338190516
 H        -6.1078927611       -4.8891578382       -5.3538360595
 H        -5.9649374521       -6.3994183756       -6.2430461287
 H        -6.8392646404       -6.3252570171       -4.6256270380
 H       -11.3346682048       -2.4372588172      -11.1599307385
 H       -12.2465575628       -1.0097769679      -11.2339679834
 H       -12.2674998889       -2.0810122074       -9.7178631210
 H        -8.8711427496        0.1758920855      -11.2164894581
 H       -10.3104239732        1.0429082339      -11.2742356582
 H       -10.1039986762       -0.3558101232      -12.3308090402
 H        -9.7669709567        0.2944777417       -4.3231961477
 H        -8.5225850432        0.4122151779       -3.2072369130
 H        -8.4862272656       -0.9313007983       -4.2512878902
 H        -8.9281956991        2.8312354061       -4.2006399871
 H        -7.6822891283        3.1931694694       -5.3336145220
 H        -7.3549336654        2.5319024806       -3.8159294497
 H        -0.6286261800       -0.9286619869       -2.0926801878
 H        -1.8127334557       -2.2562900277       -2.5382576736
 H        -2.4376275378       -0.7806686400       -1.9297283415
 H        -0.7658872841        0.9274457834       -5.3386887385
 H         0.2094437322       -0.3139322718       -4.5292696071
 H        -0.5786771796        0.9139864059       -3.6089233329
 H        -2.4831109128       -5.8427820052       -8.1452309720
 H        -3.9654880519       -6.2570453641       -8.9813921395
 H        -4.0750973114       -5.3050540422       -7.5935227016
 H        -2.9332215470       -5.4709343611      -11.2296253109
 H        -1.3491522639       -5.3801329257      -10.4252798461
 H        -2.0006180280       -4.0041137981      -11.2935972361
 H        -3.2586008421        1.7831969628       -8.7429954114
 H        -1.8041564549        1.8687455706       -9.7179944799
 H        -2.1348017327        0.3732744995       -9.0562234933
 H        -3.9117593044        2.2733778758      -11.9574611848
 H        -4.2274659967        2.7304464416      -10.1997454456
 H        -5.3910638815        1.6811923959      -11.0005531742
 H         0.6102589163       -1.8008071868      -15.5006001238
 H         0.7834637082       -2.8235475206      -14.1198067843
 H         2.1920957009       -2.7486815694      -15.1317530383
 H         3.2920801736       -2.5625554325      -12.9012462357
 H         2.1370989467       -1.6206449810      -11.8748351765
 H         3.5115063026       -0.9402286286      -12.4714372778
 H         5.3923588543        3.7052483902      -18.1671622027
 H         6.9471175479        3.3978411427      -18.8533949294
 H         6.6520793282        2.9237403378      -17.2589444770
 H         5.4589440677        1.2002389302      -20.6458830787
 H         4.1344301147        2.4060667768      -20.2890668127
 H         4.0911371756        0.7809213834      -19.9496279365
 H         9.6849804566       -4.1640436827      -21.6483471258
 H         9.6863526274       -2.8812238284      -20.4357119106
 H         9.9427128048       -2.3838561368      -22.1182674357
 H         8.4294547930       -2.5319701000      -24.0147116419
 H         6.9177307795       -2.0126802721      -23.5923958057
 H         7.2063498837       -3.7009240534      -23.6699550000
 H         4.0256678321       -3.7747947254      -16.2406682526
 H         5.3965946021       -3.6065256011      -17.4434325500
 H         5.1122441604       -5.2086565070      -16.6250339482
 H         2.9189881770       -6.3467379663      -19.3236123956
 H         3.2900728187       -6.6681643158      -17.6528200384
 H         4.5905834255       -6.6213936393      -18.6786594590
 Na        4.1958653388       -1.6861127480      -17.4655435628
 Na       -6.3607243910       -1.7729038864       -7.7851851953
