232

 C         1.1404403781       -5.1486888629      -18.0131744608
 C         2.3265190414       -4.2305570178      -17.9943798611
 O         2.1535064056       -3.0760655630      -17.7054720094
 C         3.7726574664       -4.8457419912      -18.2302324391
 C         4.2245979419       -4.1494680762      -19.5726491088
 O         4.1581554323       -2.9106679595      -19.5670096931
 C         4.6253609475       -4.8701553404      -20.9470378545
 C         5.3929845364       -3.7095590821      -21.7722681525
 C         6.8077488766       -3.6359404397      -21.2809753403
 O         7.2718252732       -4.2756381457      -20.3530550365
 C         7.8958169244       -2.6239447824      -21.9346986888
 C         7.6849645920       -1.2662146230      -21.2658773704
 O         6.9816750295       -0.5317167678      -21.9115453956
 C         8.1831046290       -0.9367256264      -19.8645757326
 C         7.7662572506        0.4044750984      -19.2873270054
 C         6.3669324091        0.3141484180      -18.4857714721
 O         6.0487915950       -0.7383115372      -17.9871997568
 C         5.4163855392        1.6128066675      -18.3832092203
 C         4.1236613444        1.2391768978      -17.5004022507
 O         3.1387733866        0.7077812503      -17.9751212788
 C         4.4088240096        1.3399268098      -15.9695704849
 C         3.1486373611        0.9842695739      -15.0662646910
 C         3.0229457986       -0.5263814188      -14.7805613532
 O         3.7648070711       -1.3132181859      -15.4012557685
 C         1.9040957162       -1.1903343752      -13.9024481993
 C         0.8751396866       -0.0911293295      -13.2509163439
 O         1.2820275286        0.9634488661      -12.8050175774
 C        -0.5163194639       -0.6618378511      -12.9452354185
 C        -1.1150508157       -0.0419920251      -11.7326639903
 C        -2.6328901249        0.2913832251      -11.8923215223
 O        -3.2158109501        0.0106032148      -12.8964370830
 C        -3.4206943730        0.7982112485      -10.5980427661
 C        -4.3685361904       -0.3862003885      -10.0687435654
 O        -4.4834917913       -0.5312625010       -8.8530445462
 C        -4.9640726358       -1.2560400892      -11.1628571760
 C        -4.1013912208       -2.6119531861      -11.1104571689
 C        -4.3118005558       -3.4283358582       -9.7289025240
 O        -5.3103326712       -3.3856501176       -9.0768499230
 C        -3.1407310603       -4.4222459418       -9.2854420051
 C        -2.1721545624       -3.3049728580       -8.5811874311
 O        -1.2241265280       -2.8384360415       -9.2178612814
 C        -2.6648264181       -2.8445701475       -7.2719940876
 C        -1.7644857346       -1.8527400668       -6.5977650165
 C        -1.9379253342       -2.0181545208       -5.1044601249
 O        -2.2481749675       -3.0286716344       -4.5444298121
 C        -1.9437634926       -0.6229763159       -4.2643540673
 C        -3.3391323543        0.0382663677       -4.5001144274
 O        -3.5762795996        0.7352764695       -5.4689833652
 C        -4.4270423737        0.0266917962       -3.2310332594
 C        -5.7194062182        0.8388230005       -3.6250687847
 C        -6.4086934199        0.2643697025       -4.8581100051
 O        -5.9497821028       -0.5036427958       -5.6736840599
 C        -7.9451755196        0.9270603991       -5.1615046254
 C        -8.3084706429        0.9213172264       -6.6492263782
 O        -7.9669384681        0.1420871286       -7.5144033267
 C        -9.2723765546        2.0728241793       -7.2781282289
 C        -9.5961035733        1.7820142221       -8.7873945847
 C       -10.4228124129        0.5225512639       -8.8720109922
 O       -11.4589360682        0.4540806240       -8.2065364084
 C       -10.1740882650       -0.6422189885       -9.9486767109
 C        -9.0921399221       -1.7460002725       -9.5748834074
 O        -7.9900349728       -1.7462625010      -10.1918402721
 C        -9.5304033898       -3.0032085240       -8.7965627487
 C        -8.6015732738       -4.2114571273       -8.5241725955
 C        -7.9997208728       -4.2333905571       -7.1007797178
 O        -7.5375805535       -3.1649929013       -6.7147506153
 C        -7.9193273111       -5.4609878902       -6.1167415800
 C        -9.3790213020       -5.4918064236       -5.3109637603
 O       -10.3871152594       -5.6123030830       -5.9734307203
 C        -9.3632147194       -5.4304792486       -3.8065193969
 C       -10.5952878643       -4.9326854687       -3.1198380460
 C       -11.0533439081       -3.6955225671       -3.7772265065
 O       -10.3952504749       -3.1006277613       -4.6260740048
 C       -12.5256553660       -3.1533708056       -3.3258603981
 C       -12.3944331570       -2.7880821181       -1.7556230987
 O       -13.1681616200       -3.1256077268       -0.8496725738
 C       -11.2089866975       -1.8525722127       -1.3960047800
 C       -11.2884034389       -1.1805071735        0.0400654510
 C       -10.4466454903        0.1129420887       -0.1184449088
 O        -9.3291047019        0.0950239865       -0.6138052510
 C       -11.0581403706        1.4243600183        0.6997707419
 C       -11.4637806476        0.9374883865        2.1177383392
 O       -10.8359858435       -0.0047902432        2.6094538519
 C       -12.4889392056        1.7478217658        2.9696057167
 C        -9.9347512034        2.4632402917        0.8470660131
 C       -12.3288900367        1.9244884850       -0.1242539114
 C       -12.9193253003       -1.9877570579       -4.1283206089
 C       -13.4680073486       -4.4317245405       -3.5338015115
 C        -7.9242672251       -6.8214126405       -6.8825627657
 C        -6.6899735906       -5.3202706244       -5.1910216021
 C       -11.5383498665       -1.3264536462      -10.2932428971
 C        -9.5211795654        0.0162920353      -11.2588354166
 C        -8.8958028159       -0.1471564927       -4.4614089535
 C        -8.0796579850        2.3080238809       -4.5264577491
 C        -1.7262605987       -0.9072440036       -2.7069294187
 C        -0.8158722329        0.3141398929       -4.7422720507
 C        -3.4501943256       -5.5453840576       -8.2651358218
 C        -2.4169055877       -5.1256301623      -10.4918892817
 C        -2.6693816823        1.4014705858       -9.4507870680
 C        -4.5377526178        1.8114749941      -11.1035378621
 C         1.2668457021       -2.3761281687      -14.6118383646
 C         2.6352341800       -1.8909282346      -12.6558836945
 C         6.1169854894        2.8604009316      -17.9272429405
 C         4.8404309461        1.8418169654      -19.7778724802
 C         9.2688870310       -3.1468320538      -21.5123923990
 C         7.8497032021       -2.4110954728      -23.4611989851
 C         4.6457483277       -4.5410738328      -17.0198350951
 C         3.8525983872       -6.3469419445      -18.4750196747
 H         0.3354136903       -4.5978952313      -18.4753521832
 H         0.7842661082       -5.5563060076      -17.0223856932
 H         1.3682223320       -6.0752617355      -18.5638793584
 H         3.7416756008       -5.0973494996      -21.6283500659
 H         5.1044806261       -5.8382831487      -20.7139176546
 H         4.8353604895       -2.7374805167      -21.6616798451
 H         5.2553136108       -3.9510971688      -22.8219827565
 H         9.2804851996       -0.8727342319      -19.9122716199
 H         8.1543373763       -1.7891014362      -19.1829332673
 H         7.6194674475        1.1077332376      -20.1240801124
 H         8.4819843227        0.7440379374      -18.5242735220
 H         4.7784881426        2.3292570647      -15.6535168666
 H         5.1289392129        0.5963004379      -15.5914885299
 H         2.2541744030        1.3725931927      -15.4860179874
 H         3.1943065747        1.5439858278      -14.1600796262
 H        -0.3427143562       -1.7258148060      -12.9171780002
 H        -1.2266852362       -0.4182916262      -13.7588223821
 H        -0.6543968083        0.9760877789      -11.4953906028
 H        -1.1264480415       -0.6996141311      -10.8540749613
 H        -5.0293139251       -0.7607286143      -12.1607205395
 H        -6.0664441818       -1.3843966840      -10.9915896936
 H        -2.9836721750       -2.3813509537      -11.0973962174
 H        -4.2315046380       -3.3669391389      -11.9603714641
 H        -2.8326182880       -3.7226333863       -6.5776564363
 H        -3.6650263388       -2.4857788139       -7.3307400789
 H        -2.0046018470       -0.7993058578       -6.8589963658
 H        -0.6975447982       -1.9630248511       -6.9193707892
 H        -4.0476203140        0.3508778302       -2.2539116282
 H        -4.9137089446       -0.8991548013       -3.0642691366
 H        -5.4336536994        1.8248140660       -3.8569882119
 H        -6.3546586209        0.7487552858       -2.7474540045
 H        -8.7581728261        3.0541778872       -7.3144938464
 H       -10.1715309935        2.0104951518       -6.7271504349
 H        -8.8059475078        1.8732428375       -9.5342862836
 H       -10.1561132240        2.6061149922       -9.0849313481
 H       -10.4340938142       -3.4662088322       -9.2774387977
 H       -10.0132954171       -2.5931006727       -7.9338802006
 H        -7.7077336447       -4.2902301983       -9.1362064557
 H        -9.1317568316       -5.1062835081       -8.7835207816
 H        -8.4920140167       -4.7824955212       -3.6333651058
 H        -9.1590310297       -6.4049553403       -3.3495238346
 H       -10.3655552945       -4.5613904513       -2.1177088463
 H       -11.4025338014       -5.5812746505       -3.1467045874
 H       -11.2194740083       -1.0777322863       -2.2043231257
 H       -10.2403237203       -2.4147063358       -1.3661469607
 H       -10.9158674383       -1.8896710515        0.7401267404
 H       -12.3005364586       -0.8278055528        0.2615241593
 H       -12.6665865698        1.3227688876        3.9637568208
 H       -13.4522900745        1.8409973330        2.5489931886
 H       -11.9669206353        2.6657298097        3.0538096794
 H       -10.3167930129        3.4183938385        1.2230240046
 H        -9.5610635528        2.6290961289       -0.1641076328
 H        -9.2815507690        1.9468318172        1.5746476179
 H       -11.9607196616        2.0727539071       -1.1410266771
 H       -12.5550741822        2.8785931829        0.2987548286
 H       -13.1718869976        1.2573996677       -0.1172706082
 H       -12.4714549193       -2.1315481742       -5.1165753628
 H       -12.4501982334       -1.0419030354       -3.7918798694
 H       -13.9538008940       -1.8096834242       -4.1490029105
 H       -14.5493850597       -4.1125123505       -3.2838652795
 H       -13.1608922032       -5.2527072850       -2.8929384276
 H       -13.4760481281       -4.8402039181       -4.5463981211
 H        -6.9668578915       -7.0452477326       -7.3571148710
 H        -8.7957930827       -7.0109143520       -7.5648978726
 H        -7.9304363464       -7.6022659023       -6.2055107751
 H        -6.8220114879       -4.6394382484       -4.4170249931
 H        -5.8085497999       -5.0698153262       -5.7905352518
 H        -6.4928115141       -6.2795321975       -4.6980561670
 H       -11.4968065913       -2.0694224055      -11.1030145582
 H       -12.2311111971       -0.5586163016      -10.5310030934
 H       -11.9429149705       -1.8049327558       -9.4665699192
 H        -8.6995099631        0.6579571369      -10.8897801848
 H       -10.1635484847        0.6863895864      -11.8087572491
 H        -9.1246176391       -0.7191085171      -11.9881850684
 H        -9.7859996383       -0.3342097240       -5.0921316854
 H        -9.2709367541        0.2466960646       -3.5320448183
 H        -8.3976154904       -1.1812458003       -4.2717886435
 H        -9.0143593575        2.8224131230       -4.6853104357
 H        -7.2652580703        2.9756199082       -4.9697860584
 H        -8.0050117237        2.3051782376       -3.4172783022
 H        -0.7913311676       -1.4991945052       -2.5581481446
 H        -2.4716192531       -1.5565718911       -2.4007053839
 H        -1.7770884593       -0.0680577993       -2.0905663907
 H        -1.0499266398        0.6698825072       -5.8024169150
 H         0.1309201419       -0.1715723480       -4.8709681083
 H        -0.7818638411        1.1444852583       -4.0553135010
 H        -2.6587749614       -6.0143729579       -7.6870091819
 H        -4.0390030882       -6.2197306233       -8.8341145132
 H        -4.2192533916       -5.1560616390       -7.5206730791
 H        -3.0337499014       -5.9394836389      -10.9282722600
 H        -1.4238953439       -5.5589234970      -10.1490373859
 H        -2.1645531310       -4.4774983718      -11.3716177341
 H        -3.4553999259        1.9015401523       -8.8109382743
 H        -1.9986270913        2.2605497856       -9.6882905843
 H        -2.0521044409        0.6132585794       -8.9599254166
 H        -5.2567055701        1.3989224209      -11.7889846240
 H        -4.0652310481        2.5784717181      -11.7292688368
 H        -4.8843365384        2.1986258368      -10.1645709392
 H         0.4834979824       -2.0094826034      -15.2551275095
 H         0.9046277070       -3.0649956738      -13.8342540049
 H         2.0065852019       -2.9391351697      -15.2307201654
 H         3.5589284638       -2.4868610318      -12.8512167688
 H         1.8464877744       -2.4698349663      -12.1428932961
 H         2.9699040768       -1.1068301323      -11.9075687987
 H         5.5415071301        3.8161022168      -17.9394442094
 H         6.8918918661        3.0763642582      -18.6345845661
 H         6.6907348450        2.7250551585      -17.0148558850
 H         5.4955419362        2.2063050453      -20.5499426605
 H         3.8280847012        2.3176533362      -19.8245070646
 H         4.4792460452        0.9870066588      -20.2219824059
 H         9.4355339849       -4.2068013232      -21.8751055744
 H         9.2035086668       -3.2349462699      -20.4380625290
 H        10.1485274467       -2.5601335579      -21.7607998027
 H         8.5621109174       -1.6748906323      -23.7413570801
 H         6.9046900259       -1.9992573843      -23.8535306611
 H         7.9989888128       -3.2769566056      -24.1794597292
 H         4.8306982660       -3.5552674653      -16.7976198501
 H         5.5863526357       -5.0086830545      -17.1865314234
 H         4.0834819824       -4.8907885447      -16.1477663478
 H         3.1729483182       -6.7444057678      -19.2632765080
 H         3.6943957903       -6.8513921804      -17.4854489816
 H         4.8588485349       -6.6371308648      -18.8169181692
 Na        3.7797854282       -1.3736018670      -17.6609314890
 Na       -6.5381968620       -1.4928848482       -8.1684574351
