232

 C         1.1441568386       -5.4021843386      -18.0637314767
 C         2.4273431626       -4.5874319002      -17.9665793886
 O         2.2491471634       -3.3703079379      -17.7242135567
 C         3.8791297079       -5.0152429951      -18.3732652091
 C         4.2499520355       -4.0071360323      -19.6902706281
 O         4.3669778497       -2.8582934302      -19.4705493713
 C         4.5265812913       -4.6132412605      -21.0655972200
 C         5.4693684762       -3.7901111662      -21.9733583975
 C         6.8504577343       -3.4534041734      -21.2494903813
 O         7.0473538232       -4.0489532224      -20.1989750489
 C         7.8897944793       -2.5075367552      -21.9456892125
 C         7.6157342283       -1.1324230625      -21.2656570651
 O         7.0498360390       -0.2269489693      -21.8659325185
 C         8.0571621104       -0.8882661507      -19.7893735938
 C         7.5196634509        0.4359898666      -19.2214102269
 C         6.1791373238        0.2069389610      -18.6121440097
 O         5.8297866376       -0.9268807666      -18.3804951178
 C         5.3144094325        1.5335897555      -18.3915516617
 C         4.1390967315        1.2761514659      -17.4294928765
 O         3.0670253449        0.8922936291      -17.9240312862
 C         4.1778511360        1.4818778321      -15.9563705168
 C         2.9510540770        0.8461709398      -15.2086214317
 C         3.0300599017       -0.6495370482      -14.8662363062
 O         3.7706731778       -1.4209175394      -15.4087824836
 C         2.0076760880       -1.2814543468      -13.7354186571
 C         1.0777219135       -0.2444507016      -13.1126424047
 O         1.3916375575        0.9217405052      -12.9089227299
 C        -0.4396849771       -0.5743741860      -12.7996372457
 C        -1.0352435253        0.2969115688      -11.6359928359
 C        -2.5873088474        0.3807083164      -11.8013315636
 O        -3.1095596850        0.1048019661      -12.8808356809
 C        -3.4411957109        0.9400090543      -10.7254722729
 C        -4.3018195661       -0.3934374052      -10.0933522516
 O        -4.4933991012       -0.3803544336       -8.9062551465
 C        -4.8665388953       -1.5755520118      -11.1293439135
 C        -4.0035400209       -2.7884584124      -11.1488722613
 C        -4.3401315916       -3.6094838554       -9.8638164675
 O        -5.3361471232       -3.4360271915       -9.1683065163
 C        -3.1661067233       -4.5063778764       -9.2664748146
 C        -2.2987838196       -3.3712850625       -8.6162192687
 O        -1.3769859638       -2.8065162027       -9.2217931760
 C        -2.7989606283       -2.9599059475       -7.1682596463
 C        -1.9527307661       -1.7972578044       -6.5926768501
 C        -2.0687539180       -1.7959472474       -5.0178301246
 O        -2.0781654148       -2.8665830842       -4.4468014232
 C        -1.9144085563       -0.4422858675       -4.2050050810
 C        -3.3161696040        0.2559866368       -4.4912755956
 O        -3.4454224051        1.0100763021       -5.4310623206
 C        -4.5008164784       -0.2029035749       -3.5994932175
 C        -5.8389875213        0.6149835980       -3.8146403890
 C        -6.5063337472        0.1777942308       -5.1087035838
 O        -6.1818707397       -0.7796756166       -5.7741118447
 C        -7.9724487807        0.8581391294       -5.2736327270
 C        -8.2865742650        1.0544318446       -6.7947116460
 O        -8.0627305944        0.1094041835       -7.5331956245
 C        -9.0708937877        2.1915877936       -7.3608221644
 C        -9.4307103666        1.7896143776       -8.8087241356
 C       -10.2107256642        0.4103469371       -8.7587338209
 O       -10.9979140838        0.1741526409       -7.8640984277
 C       -10.0832683420       -0.6091305552       -9.9632008782
 C        -9.1621069658       -1.8675938986       -9.5428872459
 O        -7.9841395145       -1.9220031157       -9.7186335020
 C        -9.8107633497       -3.0230925805       -8.7171696944
 C        -8.7314617847       -4.0765904722       -8.3784841436
 C        -8.0782750699       -3.9511829850       -7.0470259928
 O        -7.4499175575       -2.9869378954       -6.6533175440
 C        -7.9457223725       -5.1827554880       -6.1556337002
 C        -9.2603731485       -5.5020489671       -5.3211544493
 O       -10.2960807984       -5.8000548346       -5.8330606801
 C        -9.1885796829       -5.5858285829       -3.7529977527
 C       -10.4828521216       -5.0554236587       -3.0579275101
 C       -11.0733547357       -3.6924875094       -3.6785926583
 O       -10.3517961485       -3.1173132097       -4.4727378232
 C       -12.4132944333       -3.2713080400       -3.2502741061
 C       -12.3129118696       -2.8628934776       -1.7290894902
 O       -13.1324719808       -3.3626858989       -1.0263039904
 C       -11.1562810860       -1.9625408747       -1.2672603127
 C       -11.3603508489       -1.2704767431        0.0302789212
 C       -10.3512597167       -0.0005232651        0.0898639321
 O        -9.3563500476        0.1261989662       -0.5997304407
 C       -10.9904087426        1.2189567753        0.8286511064
 C       -11.5915681636        0.9220179625        2.2721244128
 O       -11.0627588605        0.0283304014        2.9039546927
 C       -12.5139337583        2.0128927616        2.8067070551
 C        -9.9263885075        2.4100164700        0.8260522056
 C       -12.1547630452        1.7815841511       -0.0776809560
 C       -12.8850204698       -1.8498340699       -3.9833680103
 C       -13.5367033749       -4.3063976088       -3.5049634522
 C        -7.7032171201       -6.4885532271       -6.9830753165
 C        -6.7180418851       -4.9523157642       -5.1859740371
 C       -11.4632945472       -1.1308884645      -10.3279981612
 C        -9.5308595808        0.0590411837      -11.2026572801
 C        -8.9705963539       -0.2395593880       -4.9174730590
 C        -8.1987824781        2.1420887098       -4.4807528757
 C        -1.6161553623       -0.8699299848       -2.7364356088
 C        -0.7103630394        0.3474789789       -4.7751057253
 C        -3.8851892380       -5.5192440441       -8.3612380026
 C        -2.3372909639       -5.1754900426      -10.4421193144
 C        -2.6607072944        1.5546430482       -9.5734749137
 C        -4.5065339050        1.9470723229      -11.2696732445
 C         1.1468706048       -2.2790625327      -14.6701744648
 C         2.7633733660       -1.8891904167      -12.5111027360
 C         6.2792843813        2.5768304271      -17.7120976020
 C         4.8123948731        1.9828301493      -19.7607625098
 C         9.3326909794       -2.9694785181      -21.6342562085
 C         7.7428362832       -2.3884386017      -23.5032538652
 C         4.8749845218       -4.5959689395      -17.2370688401
 C         3.8533678734       -6.5023452393      -18.5979724992
 H         0.3409205552       -4.6612522253      -17.8891975058
 H         1.0993416406       -6.1179416512      -17.3008486495
 H         1.0408417468       -6.0086586013      -18.9371470233
 H         3.6419404124       -4.9992086235      -21.4968317373
 H         5.0694425214       -5.4853713803      -20.6320387639
 H         4.9232738396       -2.8962562740      -22.2746587658
 H         5.7203142089       -4.3768279600      -22.8994259333
 H         9.1141866736       -0.9257732450      -19.5675748886
 H         7.7799533543       -1.7850706902      -19.2342399601
 H         7.3416695948        1.1829844506      -19.9909543247
 H         8.1116984238        0.8244596857      -18.3875833444
 H         4.1196419623        2.5116864187      -15.5911567446
 H         5.0771974885        1.0507167804      -15.5153716042
 H         2.0963906272        1.1183061594      -15.8664244824
 H         2.6917946430        1.5235135313      -14.3391808941
 H        -0.5739938900       -1.6389896732      -12.6602681735
 H        -0.9432754219       -0.2686916939      -13.6861487637
 H        -0.8185650517        1.3043313805      -11.7811914349
 H        -0.7060343130       -0.0993486094      -10.6855342017
 H        -5.0695151383       -1.2595395975      -12.1419103507
 H        -5.8826430574       -1.8122544509      -10.8450446248
 H        -2.9415772885       -2.6245190963      -11.1171477195
 H        -4.1430240454       -3.3486724690      -12.0336015655
 H        -2.8113735050       -3.7487988790       -6.4469636831
 H        -3.8933438303       -2.6723140659       -7.2257711721
 H        -2.1996310703       -0.8512079170       -7.0579013225
 H        -0.9276007139       -1.9382545582       -6.9509233181
 H        -4.1630749907       -0.0665362976       -2.5652273469
 H        -4.8342178610       -1.2775139356       -3.6141359102
 H        -5.5328843085        1.7049712640       -3.8293905429
 H        -6.4683771243        0.4077147991       -2.9405681909
 H        -8.4590203172        3.0793811246       -7.2737666308
 H        -9.9845767210        2.1160250900       -6.7309690938
 H        -8.6150419631        1.7723555718       -9.5194722723
 H       -10.0861961282        2.6101000847       -9.2773001116
 H       -10.5075832659       -3.5834323644       -9.3330632165
 H       -10.5222140724       -2.7162257145       -7.8951129945
 H        -7.8475282615       -4.2307591059       -9.0858393413
 H        -9.2292087094       -5.0944434904       -8.5220346017
 H        -8.2938937424       -5.0781762830       -3.3998296470
 H        -9.2382458650       -6.6453124795       -3.4577270117
 H       -10.2103966996       -4.8243238995       -2.0312680004
 H       -11.3268523723       -5.8091011038       -3.1307609544
 H       -10.9259156527       -1.2349044261       -2.0415331076
 H       -10.3022461016       -2.6067510363       -1.1618544275
 H       -10.9893727109       -1.9714335972        0.8315745525
 H       -12.4044238754       -0.9819922185        0.2208824068
 H       -12.4966261410        1.9943688635        3.8835167953
 H       -13.5169935789        1.6713270882        2.5331946087
 H       -12.1933942473        3.0258085632        2.5184910772
 H       -10.1742106951        3.1178673224        1.5856951067
 H       -10.0234550482        2.8281179093       -0.1158295081
 H        -8.9949470115        1.9434183543        0.8166341747
 H       -11.6919939841        1.9922045334       -1.0560627504
 H       -12.6814933032        2.6525305662        0.3240578964
 H       -12.8324366643        0.9370484460       -0.2599925679
 H       -12.8542647235       -1.9372146955       -5.0622251313
 H       -12.2962487185       -0.9960261845       -3.6577824599
 H       -13.9802851504       -1.6290850708       -3.7073233274
 H       -14.3283681120       -3.8424382263       -4.0714960265
 H       -13.8644917624       -4.9216568655       -2.6204913073
 H       -13.0781649600       -5.0844181214       -4.1959568046
 H        -7.1172194894       -6.2709247564       -7.8566366350
 H        -8.5931360076       -6.9899987116       -7.2903043231
 H        -7.0799389229       -7.2702038009       -6.4622530448
 H        -6.8072220313       -3.9439961469       -4.6908793384
 H        -5.8042759199       -5.0214373310       -5.7577811087
 H        -6.5722239964       -5.6804784703       -4.4078828460
 H       -11.4065847238       -1.9926613551      -10.9972295185
 H       -12.1437536205       -0.3285248287      -10.6790630291
 H       -11.9751112174       -1.4718094164       -9.3750770643
 H        -8.4682348005        0.3943256473      -11.2487079888
 H       -10.1725384515        0.9210580081      -11.3445606172
 H        -9.7174507344       -0.5488784146      -12.0463032185
 H        -9.9606060619        0.1873345813       -4.8856141324
 H        -8.7437067873       -0.6675324211       -3.9347298694
 H        -8.9623053369       -0.9210581917       -5.6539117283
 H        -9.2713091904        2.2671209533       -4.4382686831
 H        -7.8101763267        3.0407280017       -4.8730590598
 H        -7.8624177702        2.1039882784       -3.4898754577
 H        -1.0368829516       -1.7421904672       -2.7240722826
 H        -2.5765438193       -1.1208352192       -2.1681714253
 H        -1.0129197080        0.0340540189       -2.2131770772
 H        -0.7656628212        0.2137097107       -5.7995774545
 H         0.2615788464       -0.0356947869       -4.4922385633
 H        -0.7965830472        1.4106870564       -4.5540151584
 H        -3.0889612863       -5.9061134221       -7.7158010406
 H        -4.3566865920       -6.4119102057       -8.7981131355
 H        -4.4872634490       -5.0364857219       -7.7044086980
 H        -3.0190275168       -5.4203751509      -11.2920777937
 H        -1.9074533679       -6.0776835850      -10.1102465202
 H        -1.5533967454       -4.5813181236      -10.8971759320
 H        -3.0050593238        1.2849738477       -8.5972971206
 H        -2.7582058284        2.6141860369       -9.6084050944
 H        -1.5576182391        1.3619793031       -9.6089378808
 H        -5.4968879589        1.4228524995      -11.4504785409
 H        -4.2466158841        2.2283967423      -12.2766547327
 H        -4.6523764086        2.7469986583      -10.5111619036
 H         0.7530319817       -1.5616437497      -15.4302472756
 H         0.4142173459       -2.9021006589      -14.1290792908
 H         1.8054824268       -2.9291480366      -15.2543458962
 H         3.7123516884       -2.2546861150      -12.9075851227
 H         2.2346863238       -2.7850102530      -12.1391451236
 H         2.9866780542       -1.2279312698      -11.7044615148
 H         5.6722853018        3.4369121966      -17.5144536501
 H         7.0173373926        3.0561125363      -18.3189870087
 H         6.6739319462        2.3310700337      -16.7403304070
 H         5.6302573086        2.2589676742      -20.4186068986
 H         4.0883510348        2.7181643731      -19.7912747695
 H         4.2076507374        1.2672012965      -20.4284853333
 H         9.7608428908       -3.5097133707      -22.4417652831
 H         9.3751684032       -3.6262569058      -20.6838361374
 H         9.9969919859       -2.0857813574      -21.4586933245
 H         7.9967650780       -1.4675077889      -24.0242782800
 H         6.8459447957       -2.7661503238      -23.9290770380
 H         8.4464649705       -3.0905671482      -24.0051657786
 H         5.4656866497       -3.6256684477      -17.4624674906
 H         5.7087280965       -5.3454059715      -17.2093777388
 H         4.3225771825       -4.3500655783      -16.3115469091
 H         3.0608251037       -6.8953874186      -19.2355999205
 H         3.7888396412       -6.9479210755      -17.6061288517
 H         4.7818547698       -6.8504275350      -19.1080417284
 Na        3.4848085447       -1.4301904125      -17.8988051308
 Na       -6.4807416927       -1.5467905859       -7.8743243246
