232

 C         1.3841852028       -5.9364258317      -18.1179837934
 C         2.5282286929       -4.8413887643      -18.1242424438
 O         2.3205909420       -3.7657548329      -17.6851090525
 C         3.9245571251       -5.0544775469      -18.6897170529
 C         4.1997318611       -4.0391120755      -19.9180600223
 O         4.0730182464       -2.8264961290      -19.8379826015
 C         4.8406753094       -4.7406310361      -21.1883410303
 C         5.6627923059       -3.8668381050      -22.0485820026
 C         6.7736873785       -3.2876926247      -21.2096725660
 O         6.9786916521       -3.6999221434      -20.1045967080
 C         7.7780128161       -2.3038136746      -21.9631565925
 C         7.5357971324       -0.9661054095      -21.2480382330
 O         6.9329763214       -0.1093176929      -21.8803642163
 C         8.0517020340       -0.8718791794      -19.8488566775
 C         7.5603428124        0.3061098600      -19.0013165016
 C         5.9296940953        0.2588260399      -18.6896297507
 O         5.4010333439       -0.8441626283      -18.5455943396
 C         5.2452293327        1.6589963491      -18.3308694265
 C         3.9882691177        1.2896787414      -17.4768349802
 O         3.1265301691        0.6860595032      -18.0797525674
 C         4.1118680379        1.4679672442      -15.9652194006
 C         2.8309169850        0.9547069899      -15.2063499849
 C         2.8260733829       -0.5306560059      -14.9538994268
 O         3.5862087069       -1.2465583328      -15.5927884351
 C         1.9988641010       -1.2790955760      -13.8311024648
 C         1.2219130619       -0.2696825982      -13.0050541678
 O         1.7513451104        0.7646950369      -12.6459001158
 C        -0.3124000118       -0.6438624383      -12.4825871512
 C        -0.9659924771        0.5096127961      -11.6135058099
 C        -2.4824557273        0.5545483988      -11.8958567274
 O        -2.9247365313        0.1680862867      -12.9764210688
 C        -3.5490717845        0.9358797153      -10.7966313267
 C        -4.3152842099       -0.2648057161      -10.2050981190
 O        -4.4563158223       -0.2734676246       -9.0212078081
 C        -4.8573528807       -1.4431272122      -11.1394458541
 C        -4.0780565655       -2.7271596388      -11.0663086929
 C        -4.4308725846       -3.6382252509       -9.9099821147
 O        -5.5490264878       -3.5434540757       -9.3694990365
 C        -3.3611942219       -4.4883022673       -9.2974904446
 C        -2.4900069402       -3.4094469295       -8.4509951075
 O        -1.6090040067       -2.7796225888       -8.9461150831
 C        -2.7089112120       -3.3025123985       -6.9319956721
 C        -2.2903697364       -1.8438476451       -6.5757510588
 C        -2.0576167993       -1.7773131382       -5.0289566059
 O        -2.0329339962       -2.7607905933       -4.3095892184
 C        -1.8359065218       -0.3249988628       -4.2637527472
 C        -3.2160868194        0.4700942217       -4.3884083389
 O        -3.3498129186        1.4519137076       -5.0343251995
 C        -4.4336629839       -0.2318883915       -3.8019723704
 C        -5.7755083916        0.5600842438       -3.9405179224
 C        -6.5653255203        0.0285235973       -5.2191026017
 O        -5.9609967361       -0.7111582490       -5.9792458449
 C        -7.9736699684        0.6173653755       -5.4049625199
 C        -8.0635860296        0.9401553896       -6.9661795758
 O        -7.4379546690        0.3194450842       -7.8365006127
 C        -8.8953356615        2.1684067831       -7.4850663023
 C        -9.7044826580        1.8272760796       -8.7338987325
 C       -10.0526813712        0.2934630635       -8.7083513209
 O       -10.3638831739       -0.1053268999       -7.6213481934
 C       -10.0904359568       -0.6701406312      -10.0284832072
 C        -9.2005951166       -1.8579331205       -9.3288525102
 O        -8.0279565836       -1.8333187849       -9.5172738400
 C       -10.0018226581       -2.7649374655       -8.3271626260
 C        -9.3620592407       -4.0874104739       -8.0016341645
 C        -8.2755603775       -3.8769118513       -6.9040954924
 O        -8.0023446100       -2.7650819632       -6.4969372653
 C        -7.8092619883       -5.1696913052       -6.0888329764
 C        -9.0693773367       -5.5462349139       -5.3357707359
 O       -10.0207770355       -6.0409996272       -5.9095059106
 C        -9.1131928103       -5.4385827944       -3.7423689254
 C       -10.5971162383       -5.4291528999       -3.3098997174
 C       -11.0479592848       -3.8761670196       -3.6383687968
 O       -10.2336401571       -3.2121538823       -4.2499005846
 C       -12.3558177921       -3.1950513058       -3.1782007916
 C       -12.1865268970       -2.9067822275       -1.5665882339
 O       -12.9644508937       -3.5492129988       -0.9033299284
 C       -10.9796192662       -2.1619245756       -1.0787735604
 C       -11.3802594606       -1.4245117218        0.1877413928
 C       -10.4728817884       -0.1136732802        0.2532530869
 O        -9.4161998584       -0.0806623229       -0.3457747473
 C       -11.0922709915        1.2349388502        0.8455062293
 C       -11.6057440930        1.0159681507        2.2465174096
 O       -11.3544959610        0.0091706936        2.8614335222
 C       -12.4831614801        2.1746474653        2.9013299477
 C        -9.9091322165        2.2397962119        0.9808584217
 C       -12.1962615556        1.8428429054       -0.0670737321
 C       -12.6476852038       -1.8274374696       -3.9024388475
 C       -13.5858572934       -4.2439678507       -3.4615115058
 C        -7.3562430874       -6.4236378781       -6.9652150747
 C        -6.5715399724       -4.7815842069       -5.1524775162
 C       -11.6145873704       -0.9331936188      -10.3084671908
 C        -9.4945825441       -0.0587680840      -11.2666249854
 C        -9.0391164147       -0.4136634093       -4.9780821036
 C        -8.3831872582        1.9064096403       -4.5165320547
 C        -1.4965879158       -0.5102610910       -2.7641402066
 C        -0.7577821122        0.4872655691       -4.9539149584
 C        -4.0093677473       -5.5119815942       -8.2982182289
 C        -2.4395870696       -5.1009579480      -10.3439771909
 C        -2.8737927553        1.7807370228       -9.7328722432
 C        -4.5818376862        1.9089718273      -11.4079824970
 C         1.0514734329       -2.3424615717      -14.5533861855
 C         3.0581312242       -1.9196749336      -12.8776469765
 C         6.1427260587        2.5879432634      -17.4819979644
 C         4.8362636301        2.3948459555      -19.6068264486
 C         9.1687622866       -2.8553155162      -21.7956304608
 C         7.5596300193       -2.2153100984      -23.4857686605
 C         4.8735386950       -4.6669902871      -17.4945247530
 C         4.1089511812       -6.4937893519      -19.0713431934
 H         0.4965906019       -5.5217955042      -17.5881935581
 H         1.5802784313       -6.9534956244      -17.7589072016
 H         1.1038463793       -6.1566204769      -19.1752964611
 H         3.9290168442       -5.2599185548      -21.6680634385
 H         5.5447046289       -5.4936609499      -20.8920243931
 H         5.1273138672       -3.0257988021      -22.3850953559
 H         6.1594604428       -4.5075927541      -22.8843380436
 H         9.1492904576       -1.0836740153      -19.7523229205
 H         7.6633051636       -1.7652436563      -19.3768665599
 H         7.7621839597        1.3111758013      -19.3221338874
 H         7.9454571934        0.1830263745      -17.9469124705
 H         4.2529158249        2.4971083754      -15.6024310373
 H         4.9140552498        0.8447445589      -15.5761576313
 H         2.0224584774        1.1768579729      -15.8928394393
 H         2.5955269068        1.5471753168      -14.3995909772
 H        -0.2250809781       -1.6256418133      -11.9684538413
 H        -0.8830238314       -0.7623960226      -13.4094824741
 H        -0.5134829032        1.4570396310      -12.0518579169
 H        -0.7560971280        0.3096212978      -10.5332810240
 H        -4.8770500871       -1.0720491623      -12.2101990370
 H        -5.9722502388       -1.5791545097      -10.9350006735
 H        -2.9654723944       -2.7244772155      -11.1524806455
 H        -4.3652319372       -3.4557957079      -11.9104325582
 H        -2.1352356713       -4.0702455384       -6.4210317454
 H        -3.7707622790       -3.4184710561       -6.6208687695
 H        -3.1848711694       -1.1766769326       -6.8577624555
 H        -1.5683968833       -1.3581113153       -7.2341696095
 H        -4.2742240240       -0.5483980556       -2.7437485785
 H        -4.4643108553       -1.1908803536       -4.2328585657
 H        -5.4196819515        1.5446148244       -4.1068314203
 H        -6.3233970893        0.5741949666       -2.9852738434
 H        -8.1549592298        2.8713655902       -7.7054823799
 H        -9.6052110889        2.4482519684       -6.6580667389
 H        -9.2183067969        2.1003300707       -9.6265392359
 H       -10.6479216211        2.3885096090       -8.7174711454
 H       -11.0097321291       -2.9661684327       -8.7858066044
 H       -10.2200811495       -2.2153457675       -7.4266266922
 H        -9.1933561593       -4.6451301836       -8.9151719883
 H        -9.9892438312       -4.8018646709       -7.5328519974
 H        -8.6797273869       -4.5046795152       -3.4188677860
 H        -8.6354490410       -6.3685217388       -3.4408306567
 H       -10.7235097213       -5.5615259369       -2.2823098927
 H       -11.2641203546       -5.9956505958       -3.9460634269
 H       -10.5719989506       -1.4995399841       -1.8854296974
 H       -10.1171016315       -2.8597641880       -0.8753663801
 H       -11.2852674477       -2.0467547569        1.0856281573
 H       -12.3897137622       -1.0589440166        0.1490607530
 H       -12.2091575076        2.5289828248        3.8453465258
 H       -13.5026308567        1.8294649060        2.8997548961
 H       -12.2731984594        3.0759749486        2.3403401583
 H       -10.4319031423        3.1722084783        1.2592782078
 H        -9.3812573693        2.2188202486        0.0134951801
 H        -9.1687130471        1.8044020573        1.6411557720
 H       -11.9498375639        1.6318817496       -1.0492955251
 H       -12.2256762972        2.9537273335        0.0552811278
 H       -13.1685095015        1.4075911536        0.1604953333
 H       -13.2567192041       -1.8885622232       -4.8028020550
 H       -11.7594304798       -1.2908273545       -3.9327222913
 H       -13.3118616816       -1.2607396102       -3.2546278895
 H       -14.4582965639       -3.7286352135       -3.7957897395
 H       -13.8577106771       -4.5732245618       -2.4350430083
 H       -13.4804784579       -5.1134293658       -4.1646682557
 H        -6.5039948145       -6.2788883337       -7.6176444823
 H        -8.1489392357       -6.6729671678       -7.6054761152
 H        -7.2949879055       -7.3668510528       -6.3286860789
 H        -6.7680498398       -4.0101758992       -4.3808731486
 H        -5.7326377425       -4.4240557741       -5.7274580919
 H        -6.1654071653       -5.6403422186       -4.6737768671
 H       -11.6312827920       -1.6742321029      -11.0073670898
 H       -12.0955260473       -0.0649760522      -10.7365992161
 H       -12.2293441249       -1.2015703040       -9.4477914009
 H        -8.4693572688        0.1532054272      -11.0996194170
 H       -10.0084262540        0.8532305951      -11.6761035764
 H        -9.4697705048       -0.8412531973      -12.0459525672
 H       -10.0003030029        0.1450219611       -4.7845623369
 H        -8.7124652730       -0.8738952013       -3.9780733483
 H        -9.2446465768       -1.0626051692       -5.7380728083
 H        -9.3626117083        2.3753822043       -4.8899436779
 H        -7.6632920031        2.6929233003       -4.6463312434
 H        -8.2956128614        1.7267994770       -3.4273027237
 H        -0.5576141897       -0.1766513385       -2.6414004375
 H        -1.5799173981       -1.5387753467       -2.6066332894
 H        -2.1546526308        0.1445865381       -2.0934877835
 H        -1.0569077391        0.9073175499       -5.8885079173
 H         0.1976952241       -0.1624167459       -4.9982217330
 H        -0.5042938872        1.3541813227       -4.3078212811
 H        -3.3575046767       -6.2689506586       -7.8228746593
 H        -4.5150723742       -6.1916005476       -9.0293295331
 H        -4.7044111491       -5.1206380676       -7.6127000535
 H        -2.8136227352       -5.0612448974      -11.4001000216
 H        -2.2621683786       -6.1745027722      -10.2176859428
 H        -1.5252930043       -4.4503071313      -10.4360826885
 H        -3.4233109664        1.6875729933       -8.7628436105
 H        -2.7670029883        2.8444218369      -10.0421137394
 H        -1.9428272310        1.4223124931       -9.2981520166
 H        -5.1180861520        1.4393446227      -12.1992217843
 H        -3.9442241312        2.6870120345      -11.8798831547
 H        -5.3761380307        2.2255079866      -10.7296680992
 H         0.2465706754       -1.8320688978      -15.1380081661
 H         0.6601652931       -3.1393801960      -13.9541019066
 H         1.6711011286       -2.7329576214      -15.3182578764
 H         3.3477848941       -2.9540365079      -13.1159026528
 H         2.6528676710       -2.1351201459      -11.8493086577
 H         3.8465018770       -1.1839553747      -12.7281774235
 H         5.5838043020        3.4068330311      -17.0998116465
 H         7.0737199221        3.1005674740      -17.8935696401
 H         6.4157035863        2.0548414418      -16.5825085014
 H         5.5694689997        2.3278556659      -20.4363011572
 H         4.7933726427        3.4346476758      -19.5040210168
 H         3.8958336953        2.2218736100      -20.1904093691
 H         9.1392266240       -3.8560545473      -22.1429902933
 H         9.6670095948       -2.7628713104      -20.7822422239
 H         9.8695180239       -2.3220868558      -22.4556408469
 H         8.5556959899       -2.0814649014      -24.0010436742
 H         6.8802356289       -1.3748303585      -23.6668977867
 H         7.1062337855       -2.9393620885      -24.1116492160
 H         4.5844355602       -3.6641047856      -17.2054379923
 H         5.8049196614       -4.5256721834      -17.9528830466
 H         4.8677641109       -5.3226929752      -16.6698745236
 H         3.3018330583       -6.7509780871      -19.7659792210
 H         3.9914508385       -7.1247726878      -18.2115693968
 H         5.0745777443       -6.6821928055      -19.5713107062
 Na        3.3588969697       -1.7539407433      -17.8496989957
 Na       -6.1078116524       -1.7069035233       -8.1001715802
