232

 C         1.6115180602       -6.2590594786      -18.3367945819
 C         2.5689878770       -5.0511638128      -18.2375733908
 O         2.2278280278       -4.0008786783      -17.7625556051
 C         4.0166805186       -5.2842039796      -18.7120820803
 C         4.0379108049       -4.4358930231      -20.1345880596
 O         3.4141335613       -3.3594676574      -20.2441140182
 C         4.7430777472       -4.9371672074      -21.3659136281
 C         5.3932108989       -3.6361558363      -22.0867048639
 C         6.6127987908       -3.1327188615      -21.3242388239
 O         6.9662519328       -3.5253467975      -20.2484569957
 C         7.7111030341       -2.1140099909      -22.0210872119
 C         7.5842028163       -0.8444110162      -21.1652640918
 O         6.8481093686        0.0302781578      -21.6283902341
 C         8.2278116505       -0.7944511117      -19.8021165075
 C         7.5593888671        0.4886731339      -19.1362008666
 C         6.0485560845        0.3832952976      -18.6408919518
 O         5.5914334641       -0.7554937370      -18.7687462734
 C         5.2884498837        1.6656681614      -18.2873150736
 C         3.9701528101        1.3055774032      -17.4119430588
 O         3.2036991756        0.6277644584      -18.0351289609
 C         3.7515445585        1.6765689890      -15.9668399241
 C         2.5600258140        0.9740374174      -15.2026368303
 C         2.7023492300       -0.5095274389      -14.9490351223
 O         3.2838130864       -1.2377939478      -15.7635936177
 C         1.9237166302       -1.1996931494      -13.7516272816
 C         1.2586043298       -0.2778777892      -12.7888641521
 O         1.7895507937        0.6137369230      -12.1714322025
 C        -0.2448263381       -0.6306341493      -12.3957736951
 C        -0.9224937739        0.4128154353      -11.4934613959
 C        -2.4336726927        0.4169201390      -11.8815404504
 O        -2.7837161621        0.0823439540      -13.0122353148
 C        -3.4936376972        1.0202591964      -10.8891242496
 C        -4.1871856360       -0.2420742136      -10.2389894638
 O        -4.2737902378       -0.3993972249       -9.0525081649
 C        -4.8640667281       -1.2160815871      -11.2225665900
 C        -4.0595272957       -2.5013415546      -11.0109087040
 C        -4.5491434000       -3.4656584440       -9.9058021092
 O        -5.6719146583       -3.5070384860       -9.4178386973
 C        -3.3753361259       -4.4026356456       -9.2127003865
 C        -2.5035033664       -3.3400718208       -8.4289515676
 O        -1.6811418989       -2.6678158760       -8.9537181341
 C        -2.7138284715       -3.3044349224       -6.8498401222
 C        -2.5503108647       -1.8690291704       -6.3481899055
 C        -2.0927517023       -1.7111345904       -4.8450555625
 O        -2.0144157459       -2.7181786219       -4.1409870625
 C        -1.8052831181       -0.2072203155       -4.3093355352
 C        -3.1579540678        0.5902390562       -4.1976578296
 O        -3.2382397522        1.6528733142       -4.6708879231
 C        -4.3182951235       -0.1846025032       -3.4452343044
 C        -5.7196718205        0.4576047138       -3.7291015697
 C        -6.2780705105        0.0474131418       -5.1468286401
 O        -5.6939729774       -0.7847889113       -5.7919039581
 C        -7.6358459262        0.7417465955       -5.5666648837
 C        -7.7165252089        1.2636675166       -7.0697550177
 O        -7.0570960881        0.8583338886       -8.0277847052
 C        -8.9807297524        2.1359430381       -7.3721070491
 C        -9.5020492634        1.7118921094       -8.7757640005
 C       -10.2348990237        0.4116279962       -8.6315071428
 O       -10.9343792837        0.2234276582       -7.6923856170
 C       -10.2329994736       -0.6700241606       -9.7732073088
 C        -9.4781278286       -2.0141476277       -9.2816595242
 O        -8.4007829155       -2.2709283054       -9.7951916384
 C       -10.1522960933       -2.8959471329       -8.2948127030
 C        -9.4132256693       -4.1874008014       -7.9680658459
 C        -8.3311421351       -3.9924876555       -6.9129330468
 O        -7.6786388779       -2.9800976620       -6.9273319561
 C        -7.8093454457       -5.1685728032       -6.0148580432
 C        -9.0398933337       -5.9362531178       -5.2550937148
 O        -9.9238043279       -6.4848513530       -5.8754155323
 C        -9.1764186283       -5.8159543213       -3.6858989224
 C       -10.6583910608       -5.3348491555       -3.3246136522
 C       -10.9728826854       -3.8272368061       -3.5380355250
 O       -10.2600740418       -3.1542883514       -4.2368689476
 C       -12.2776902455       -3.2206273645       -3.0432820416
 C       -12.1417076477       -3.1676769308       -1.3816485104
 O       -12.9023572878       -3.7919044255       -0.6532108153
 C       -11.0257815326       -2.3116716106       -0.8894203539
 C       -11.4938250579       -1.2444574442        0.0326086711
 C       -10.4637017683       -0.1219093878        0.2899923139
 O        -9.3186577086       -0.2053498309       -0.1172911846
 C       -11.0293825118        1.2844322915        0.8931619703
 C       -11.6774679801        1.0414739476        2.3264792198
 O       -11.7280343350       -0.0975906339        2.7086739230
 C       -12.3799476729        2.1310952859        3.0673218061
 C        -9.9405961688        2.3509902356        1.0332088316
 C       -12.1107318908        1.7669369700       -0.0881017176
 C       -12.5824631147       -1.8678780034       -3.5998206817
 C       -13.4367275800       -4.2867491452       -3.3358578922
 C        -7.2974364707       -6.1598292677       -7.1719688600
 C        -6.6830538855       -4.7952136821       -5.0614830790
 C       -11.6250021404       -0.9997590440      -10.1715375879
 C        -9.3529293135       -0.2269665690      -10.9820099933
 C        -8.7164835421       -0.3157418274       -5.2867878146
 C        -7.9466408899        2.0638567086       -4.7387368073
 C        -1.1887919972       -0.1393463831       -2.9012033610
 C        -0.8594447661        0.5388991967       -5.3191456695
 C        -3.8850039612       -5.5109108022       -8.3404917763
 C        -2.4528147751       -5.1437998946      -10.3037145652
 C        -2.9346317374        1.9094704929       -9.8004835518
 C        -4.6149650118        1.7592744783      -11.8204698561
 C         0.9963721875       -2.2916408725      -14.3047783856
 C         3.1116570438       -1.9878171918      -13.0492091807
 C         6.1111697405        2.6948633178      -17.4055189978
 C         4.7766142601        2.3024401742      -19.5696753833
 C         9.1427090807       -2.6099376419      -21.8654765320
 C         7.6157468943       -1.6429265307      -23.5199703337
 C         5.1158203535       -4.6177627343      -17.8279026145
 C         4.2384810411       -6.8401413033      -19.0615709459
 H         0.6216753905       -5.9124459812      -18.2766579102
 H         1.6917642725       -7.0692414983      -17.6023648956
 H         1.6677283374       -6.7648758803      -19.2983965624
 H         4.0028081391       -5.0603780745      -22.2601809826
 H         5.3948124712       -5.7838941522      -21.1932228455
 H         4.5399111133       -3.0076419429      -22.1280094975
 H         5.7500188566       -4.0483140467      -23.0285432131
 H         9.3363079136       -0.6555991581      -19.8697747548
 H         8.0972070912       -1.7802166126      -19.3495165190
 H         7.5927407364        1.3081120182      -19.8534527241
 H         8.0949864961        0.8897976831      -18.2615393456
 H         3.6520961017        2.7618872049      -15.9403720756
 H         4.5544125653        1.4340464315      -15.2711440788
 H         1.6037843427        1.0516202480      -15.8453458644
 H         2.2840914666        1.4718831476      -14.2860742882
 H        -0.2712488494       -1.6169335765      -11.9154020535
 H        -0.8520117260       -0.6919823687      -13.3427648708
 H        -0.5382129124        1.4235584252      -11.7135563857
 H        -0.8089872141        0.1983022983      -10.4501035413
 H        -4.8270090669       -0.9178867925      -12.2378214398
 H        -5.8741187596       -1.3409726320      -10.9507964957
 H        -3.0202325308       -2.3786522369      -10.7586962307
 H        -4.1102470410       -3.0957469078      -11.9192766586
 H        -2.0129352661       -3.9928196869       -6.3066830929
 H        -3.7241614488       -3.5544998722       -6.6111433655
 H        -3.4614135054       -1.3341002428       -6.5792073189
 H        -1.9189423980       -1.3629526554       -7.0182511449
 H        -4.1356185879       -0.1097525837       -2.3355737788
 H        -4.2724989999       -1.2615191362       -3.5226404761
 H        -5.5503179770        1.5434874145       -3.7807495581
 H        -6.4469937004        0.2703937261       -2.8609141910
 H        -8.7491194152        3.1950888486       -7.5450042972
 H        -9.7277095151        1.9667285403       -6.5108563610
 H        -8.5905803878        1.6589707902       -9.4178652006
 H       -10.2202757647        2.4406231525       -9.1785396286
 H       -11.0836173950       -3.2094517518       -8.8584032755
 H       -10.4623026254       -2.5054056975       -7.3516014909
 H        -8.9970262106       -4.6905773347       -8.8475316276
 H       -10.0321129380       -4.9911621802       -7.6209468296
 H        -8.3053961025       -5.2673906270       -3.2981548184
 H        -9.2725072411       -6.8680846281       -3.3558089980
 H       -10.9538482392       -5.5330682747       -2.2493663467
 H       -11.3241097290       -5.8869515950       -4.0027648130
 H       -10.4599905737       -1.9236709314       -1.7155301445
 H       -10.3342857369       -3.0062437682       -0.3950836551
 H       -11.8214616017       -1.6008643772        0.9925354590
 H       -12.3583926072       -0.7213817797       -0.3683697359
 H       -12.0097005124        1.9857672798        4.0962029995
 H       -13.4993924733        2.0350039258        3.0096897984
 H       -12.0377595849        3.1998067367        2.9120079272
 H       -10.4724351236        3.3084638183        1.1906790219
 H        -9.1843387222        2.2825415231        0.2000698507
 H        -9.4949461295        2.0905963289        2.0007674010
 H       -11.7181883842        2.2588899313       -0.9414656403
 H       -12.6779816109        2.5308517012        0.5281824813
 H       -12.8943166305        1.0295231627       -0.3579170067
 H       -12.7147306632       -2.0747165422       -4.7354787201
 H       -11.8127092177       -1.1039433315       -3.3958752105
 H       -13.5868384779       -1.5750888296       -3.3404473479
 H       -14.3420104842       -4.1250286699       -2.8652988014
 H       -13.1521846567       -5.2969142581       -3.1120113009
 H       -13.6114213283       -4.1635785746       -4.3932831312
 H        -6.8211805609       -5.6345941425       -8.0193099074
 H        -8.1107343131       -6.6930386688       -7.6035999877
 H        -6.5795996622       -6.8985333946       -6.7519146181
 H        -6.8179912673       -3.9587052414       -4.3858617164
 H        -5.7620544234       -4.4749960567       -5.5808800357
 H        -6.4767127689       -5.7230199497       -4.5035178750
 H       -11.7191352526       -1.9133907026      -10.7324661662
 H       -11.9661579878       -0.1665588231      -10.8763777414
 H       -12.2761124255       -0.9989221755       -9.2361954291
 H        -8.4054137012       -0.1497600369      -10.6180435360
 H        -9.6419033280        0.7394267437      -11.4470965356
 H        -9.3354568786       -0.9664737428      -11.8223968607
 H        -9.5815885394       -0.0383952343       -5.9502285026
 H        -9.0287840145       -0.1239990561       -4.2047249463
 H        -8.4692346545       -1.2788164012       -5.5418540622
 H        -8.9084197039        2.5595093811       -5.0615417535
 H        -7.1539553544        2.7438287083       -4.8849272915
 H        -8.2195684888        1.9568490294       -3.6666213469
 H        -1.4777493306        0.8052639851       -2.5268325631
 H        -0.1205159966       -0.3631227296       -2.9479773903
 H        -1.7606552919       -0.9228638081       -2.3238027075
 H        -1.3318792709        0.7860865162       -6.2368823693
 H         0.0749539681       -0.0634025684       -5.3988923256
 H        -0.6198510716        1.4701873046       -4.9052440056
 H        -3.0997061841       -6.1153670234       -7.8706048676
 H        -4.4880413921       -6.2259315900       -8.9053807709
 H        -4.5562483888       -5.1362779892       -7.5572700480
 H        -2.7329575207       -6.0379246799      -10.7474759023
 H        -1.5200723240       -5.4210384391       -9.8135750745
 H        -2.1905005966       -4.4448135143      -11.0529486162
 H        -3.3965886724        2.9132100426       -9.6695298752
 H        -1.8775571739        2.0939228089       -9.8796426348
 H        -3.1877057406        1.5256470616       -8.8945861376
 H        -4.4816060003        1.6228530172      -12.8783874726
 H        -4.5283925813        2.8721117610      -11.4952197093
 H        -5.6567477245        1.4967637934      -11.6827298572
 H         0.1900732019       -1.9009352035      -14.9663633868
 H         0.4422688472       -2.6981750605      -13.4542706051
 H         1.5455685715       -3.0691568517      -14.8505890055
 H         3.8012997499       -2.4043549227      -13.7613139739
 H         2.8162767255       -2.8614039118      -12.5501289366
 H         3.5365017993       -1.3321510428      -12.3291688351
 H         5.5311689917        3.4343674910      -16.8929867401
 H         7.0317128044        3.1753564506      -17.9040690035
 H         6.6436213883        2.1058787048      -16.6704562500
 H         5.4053009512        2.8361441002      -20.2544245090
 H         4.1297939563        3.1446718226      -19.3158820623
 H         4.3065777580        1.6002278755      -20.2664488584
 H         9.3340498202       -3.2388119449      -22.7029725594
 H         9.3166692508       -3.1668720998      -20.9794835401
 H         9.8449927595       -1.8033601543      -21.8592716885
 H         8.5704611471       -1.1912758940      -23.9145864842
 H         6.7227246685       -0.9556320513      -23.6251891823
 H         7.3913064078       -2.4443128095      -24.1469058336
 H         4.5642730208       -4.0002268408      -17.0530426463
 H         5.8562811453       -3.9685917002      -18.3680183477
 H         5.7110597701       -5.4405502202      -17.3966775841
 H         3.5631570353       -7.0931039150      -19.8781927638
 H         3.9780792179       -7.4806152906      -18.2316205249
 H         5.2688716183       -7.0347552083      -19.3099298018
 Na        3.4773743528       -1.8542416830      -18.2339365097
 Na       -6.5117991108       -1.5533083623       -8.1122887565
