232

 C         1.5866939579       -6.2271565338      -18.2971802153
 C         2.6108528641       -5.1471284043      -18.3228151205
 O         2.3798105027       -4.1307467612      -17.7772982347
 C         4.0460350058       -5.3597249277      -18.9627983467
 C         4.0133521550       -4.4431985804      -20.2569861444
 O         3.3298620140       -3.4104256688      -20.2609122561
 C         4.8357460677       -4.8272540158      -21.4560045308
 C         5.3932176960       -3.5511087634      -22.1621028561
 C         6.6675984044       -3.1788932565      -21.3860559844
 O         6.8699421660       -3.6078780737      -20.2584345705
 C         7.7027512434       -2.0873503561      -22.0135266194
 C         7.4323090501       -0.6892415495      -21.1870791732
 O         6.7456322963        0.1998064640      -21.6563091131
 C         8.1258842011       -0.5399349719      -19.8429553856
 C         7.6418672639        0.5724302711      -18.9435933592
 C         6.1706923773        0.2571689446      -18.6163101389
 O         5.6009847750       -0.8159411370      -18.7861135141
 C         5.1954773140        1.6268188452      -18.1941265257
 C         3.9623889002        1.1610243119      -17.3879876754
 O         3.0971094054        0.5383628292      -17.9841582149
 C         3.7279216602        1.7329158157      -15.9951230539
 C         2.5019587209        1.0433126513      -15.3027072606
 C         2.6347941084       -0.4786166600      -15.0573722095
 O         3.2080865959       -1.1994379905      -15.8156609358
 C         2.0043666937       -1.3189565278      -13.6516533675
 C         1.2863132335       -0.3885467112      -12.7086203713
 O         1.8480735863        0.5561853871      -12.2072782403
 C        -0.2971420402       -0.6165361588      -12.3760707688
 C        -0.9589470940        0.3870271536      -11.4359322918
 C        -2.3595948061        0.5411721045      -11.8894104752
 O        -2.7232751617        0.0242206660      -12.9547359262
 C        -3.4759888074        1.0358052365      -10.8954796206
 C        -4.2753679477       -0.2239093858      -10.2249520553
 O        -4.3505516201       -0.3441452505       -9.0224809521
 C        -4.9605858112       -1.3994213326      -11.1210804583
 C        -4.0604046991       -2.6939944490      -11.0828649129
 C        -4.4716720618       -3.5005401698       -9.9125629393
 O        -5.5619868125       -3.3533387129       -9.3498208420
 C        -3.3717042032       -4.3745937551       -9.2189994790
 C        -2.5498019705       -3.3640953378       -8.3839637226
 O        -1.7117299859       -2.6231520615       -8.9368443824
 C        -2.7326904361       -3.2628191465       -6.8288308347
 C        -2.5562501331       -1.7986523910       -6.3031692484
 C        -2.0599939075       -1.7106585780       -4.8906091308
 O        -2.0628468882       -2.6446808327       -4.1234987550
 C        -1.7359436512       -0.2558388191       -4.3917665173
 C        -3.1228881763        0.4652149792       -4.1964844441
 O        -3.3035492878        1.6604984946       -4.5605828123
 C        -4.2685963732       -0.1498130784       -3.3917489140
 C        -5.6117100216        0.5052263755       -3.6362529022
 C        -6.1894617401        0.2140860444       -5.1510559944
 O        -5.6895874659       -0.6848755005       -5.7975291783
 C        -7.5656862884        0.8886604998       -5.5580172133
 C        -7.6789164463        1.2084616255       -7.0665939515
 O        -6.8920223430        0.8040597088       -7.9202182125
 C        -8.8738560455        2.0582392508       -7.4709964242
 C        -9.5277158150        1.7533931210       -8.8487218774
 C       -10.3634024049        0.4132452709       -8.6269677017
 O       -11.2183363178        0.3114203337       -7.7523243261
 C       -10.2310130443       -0.7411332477       -9.7401277844
 C        -9.5228631154       -2.0781172718       -9.3449615488
 O        -8.4169210832       -2.3986548948       -9.7430755145
 C       -10.2604121455       -2.9576581360       -8.2554974227
 C        -9.4768949174       -4.3327447973       -7.9243791908
 C        -8.2571225300       -4.0825861825       -6.9810115795
 O        -7.6592866907       -3.0066557184       -6.9611512866
 C        -7.8310588725       -5.3218391538       -6.0331311478
 C        -9.1150008070       -5.9056177820       -5.2891793051
 O        -9.9109680455       -6.6011496255       -5.8679638384
 C        -9.2073623996       -5.7397920279       -3.7198052635
 C       -10.6701174111       -5.4329075866       -3.3328571285
 C       -10.9272565540       -3.9138149781       -3.5900004414
 O       -10.1635973619       -3.1908266391       -4.2478724377
 C       -12.3093148429       -3.3726432067       -3.0568095247
 C       -12.0343920192       -3.2300341456       -1.3701720848
 O       -12.8051592974       -3.8340219091       -0.6846483502
 C       -10.9303990706       -2.3603976681       -0.6749453019
 C       -11.5268708790       -1.1086365418        0.0612044200
 C       -10.4902588031        0.0305440000        0.2161529194
 O        -9.3227412272       -0.2165423692       -0.0161894765
 C       -11.0306965688        1.2964522966        0.8781193999
 C       -11.7587872579        0.9028550839        2.3098695013
 O       -11.9018126930       -0.2486183143        2.7669501194
 C       -12.2773400836        2.1153740643        3.0568206855
 C        -9.8711249971        2.3547648392        1.0544352537
 C       -12.1330804395        1.9149320922       -0.0673397106
 C       -12.6433402589       -1.8907895679       -3.4740054286
 C       -13.4334571090       -4.3264787523       -3.3158114798
 C        -7.2750292533       -6.2353332043       -7.1487359965
 C        -6.8452519858       -4.9607779000       -4.9940830649
 C       -11.7544817966       -0.9381960916      -10.2372260517
 C        -9.3655071426       -0.2752791942      -11.0011805089
 C        -8.6525309417       -0.1638742626       -5.3519730105
 C        -7.7206234925        2.1310683388       -4.6672593034
 C        -0.9682563177       -0.1715939970       -2.9740159416
 C        -0.8851986227        0.6618671840       -5.3485771740
 C        -3.9516842430       -5.4242338685       -8.3550310272
 C        -2.4075335169       -5.0046449092      -10.2796665735
 C        -2.9277807878        1.9708145368       -9.8375576647
 C        -4.5787326925        1.6715540310      -11.8209634481
 C         0.9355516775       -2.3113136094      -14.3088094847
 C         3.1863419753       -1.9725138214      -12.9467993554
 C         6.1147119125        2.6995142293      -17.3962698081
 C         4.7345065060        2.2659909373      -19.4835927929
 C         9.1644808508       -2.6226104524      -21.8346449829
 C         7.4300606566       -1.6760752687      -23.4572943328
 C         5.0144927425       -4.6162280222      -17.9186274862
 C         4.4105347491       -6.7873803330      -19.1048496868
 H         0.5757811624       -5.7738051492      -18.0647003944
 H         1.7127264348       -7.0245683877      -17.6220676656
 H         1.4631084391       -6.6818417738      -19.2763303613
 H         4.3384521482       -5.3769014566      -22.2736517322
 H         5.7236600041       -5.3501562375      -21.0265083886
 H         4.6966366974       -2.8275221801      -21.8958480873
 H         5.5434105970       -3.8098407163      -23.2456403549
 H         9.2204736228       -0.3616851975      -20.0831238996
 H         8.1141508451       -1.5017498891      -19.3434392505
 H         7.6798144386        1.5816324843      -19.3235543558
 H         8.1772766838        0.6455366845      -17.9604543458
 H         3.5830256035        2.8337001195      -16.1051104564
 H         4.5473083883        1.6095844703      -15.2919162164
 H         1.6913686501        1.2203112441      -16.0019467107
 H         2.1685424557        1.4706258411      -14.3950988542
 H        -0.4064609566       -1.6436108443      -11.8874366084
 H        -0.8794976961       -0.6564243572      -13.3394667588
 H        -0.4105683529        1.3830307201      -11.3165934603
 H        -1.1279115439       -0.0513910290      -10.3966268629
 H        -5.2516319373       -1.1948665342      -12.1441857856
 H        -5.8667315098       -1.6559985859      -10.5688171734
 H        -2.9577854202       -2.6277498111      -10.9683607670
 H        -4.3376457720       -3.3183616971      -11.9918796558
 H        -1.9082995473       -3.7876364458       -6.3732774803
 H        -3.7052022482       -3.6438959427       -6.4490896666
 H        -3.4717177555       -1.1631119158       -6.4364348695
 H        -1.9150285957       -1.3136853371       -7.0075605678
 H        -4.0285027293       -0.0481148776       -2.2970110983
 H        -4.3629485519       -1.2040616291       -3.4364620737
 H        -5.5597210750        1.5573184254       -3.3960751527
 H        -6.3032217979        0.0452422919       -2.8875207120
 H        -8.5397582108        3.0715713859       -7.5441537782
 H        -9.6970453568        1.9821334402       -6.6482163551
 H        -8.7646298684        1.6322871174       -9.5661574719
 H       -10.2192505590        2.5746353822       -9.0692540998
 H       -11.3302905887       -3.1679509430       -8.4451454675
 H       -10.1999805280       -2.4920628808       -7.2979341493
 H        -9.0341761789       -4.7597691941       -8.7734994408
 H       -10.0044267867       -5.1730436914       -7.5802941124
 H        -8.5506304294       -4.9236205383       -3.4219863036
 H        -8.9412132398       -6.7082475589       -3.2485738476
 H       -10.7542526809       -5.3907039925       -2.2767355732
 H       -11.4436681930       -6.1093841967       -3.7331037295
 H       -10.1032284645       -2.0744040868       -1.3594829663
 H       -10.4926131716       -3.1649369435       -0.0461396587
 H       -11.7773637218       -1.2339277554        1.1141136141
 H       -12.4420676838       -0.7910463697       -0.3567082555
 H       -12.0403936117        2.0214395664        4.1422823826
 H       -13.3977283202        2.2198678951        2.8659750276
 H       -11.7782255978        3.1067964068        2.8365685727
 H       -10.3922508744        3.3338680823        1.4259613328
 H        -9.4249834786        2.3921616903        0.0166987040
 H        -9.1237050267        1.9842368930        1.8623884073
 H       -11.7064679243        2.3259440356       -0.9687852103
 H       -12.7404109247        2.7020613729        0.4347260123
 H       -12.8734254943        1.1407785949       -0.3323498643
 H       -12.6116511499       -1.9671422754       -4.5681128001
 H       -11.8353267865       -1.2341481090       -3.1766756238
 H       -13.7178176367       -1.5190206754       -3.2831269494
 H       -14.2786852387       -4.3755019198       -2.7178062429
 H       -13.0982231349       -5.2979968827       -3.3181566413
 H       -13.6805010567       -4.0613395346       -4.2816417901
 H        -6.9856708020       -5.6370701241       -8.0036487168
 H        -7.9303760598       -6.9712660625       -7.5657279679
 H        -6.3079644811       -6.7273869994       -6.7780237986
 H        -7.1418615280       -4.0379084539       -4.4038562637
 H        -5.9213953146       -4.5830266017       -5.4133052652
 H        -6.6715999075       -5.7809109992       -4.3178904268
 H       -12.0218988241       -1.8764887142      -10.6829748500
 H       -11.9366618222       -0.1578597377      -10.9866586303
 H       -12.3868680554       -0.7260557146       -9.3510498589
 H        -8.2435688411       -0.4453474273      -10.9153730558
 H        -9.5792427929        0.7670570817      -11.2420445726
 H        -9.7275964992       -0.7780264297      -11.8689457257
 H        -9.5983140535        0.1786963401       -5.8797592657
 H        -8.8651379199       -0.3568479235       -4.2487823820
 H        -8.3309862128       -1.0281544580       -5.9532229639
 H        -8.5916836073        2.7738809384       -4.9798643467
 H        -6.7818742608        2.7492805642       -4.5294120180
 H        -8.2078871986        1.8054022433       -3.7212115455
 H        -1.5417564351        0.4475583586       -2.4069796496
 H        -0.0372538213        0.1789275870       -3.1564973638
 H        -0.9597297588       -1.2099329930       -2.5327886535
 H        -1.4626441688        0.8106076917       -6.2301418565
 H         0.1245023700        0.2452655539       -5.5501691834
 H        -0.8116983909        1.7090338505       -4.9190276832
 H        -3.1960271906       -5.9813003993       -7.7101809563
 H        -4.5927068987       -6.2393677619       -8.8710655078
 H        -4.6617546473       -4.9599988864       -7.7035931875
 H        -2.4308466939       -6.0295376893      -10.6184113648
 H        -1.4915192425       -4.9705186066       -9.8237437169
 H        -2.2141985731       -4.3444691137      -11.0857960109
 H        -3.3330905913        2.9569470213       -9.9328432206
 H        -1.8633918602        2.1045125226       -9.7039635407
 H        -3.4481475059        1.7242864048       -8.8436485439
 H        -4.4183770408        1.3183813882      -12.8379480932
 H        -4.4959220929        2.7311959252      -11.7374049422
 H        -5.6713493095        1.4997365070      -11.6746663190
 H         0.3284954739       -1.7742740835      -15.0404534926
 H         0.1852670480       -2.6779704984      -13.6523679191
 H         1.4208053097       -3.0800186374      -14.8209694586
 H         3.9670752609       -2.3954233443      -13.5495654682
 H         2.8333704318       -2.8267144267      -12.3475258924
 H         3.5360288733       -1.2810520118      -12.2325758961
 H         5.4777400308        3.5153884377      -17.0424943012
 H         6.9371327315        3.1217755648      -18.0037712466
 H         6.7218433702        2.3239845217      -16.5196575414
 H         5.4239845059        2.8217726429      -20.1038836803
 H         4.0778208409        3.0254112554      -19.3936972122
 H         4.3953908412        1.4733442882      -20.2284725497
 H         9.3515004913       -3.1970445110      -22.6397202603
 H         9.1282235459       -3.3658971876      -21.0099551645
 H         9.9409649799       -1.9618225988      -21.6629932736
 H         7.9849065996       -0.7181908935      -23.7261744116
 H         6.3847889478       -1.4964577580      -23.5546099450
 H         7.7135505058       -2.4810821008      -24.2865925449
 H         4.3827202916       -3.8674257214      -17.4379630085
 H         5.8580755489       -4.1471737651      -18.3835067702
 H         5.4507659271       -5.3127553654      -17.2789087931
 H         3.7250026803       -7.3127296719      -19.6834659064
 H         4.3865602951       -7.1966218089      -18.1533632760
 H         5.4283134785       -6.8802831185      -19.4206962285
 Na        3.5222025346       -1.8875731236      -18.4216967229
 Na       -6.4426391575       -1.2225524574       -8.2425427536
