232

 C         1.6983802048       -6.2479221250      -18.3371872869
 C         2.7333148746       -5.1587374011      -18.3138512110
 O         2.2944284322       -4.0639597345      -17.8069273671
 C         4.1598331725       -5.2755978009      -19.0541333129
 C         4.0370335003       -4.3982725655      -20.3250616493
 O         3.4145039455       -3.3507450228      -20.4181170116
 C         4.7082730099       -4.8919572370      -21.6244388938
 C         5.3910618766       -3.6306146660      -22.2211913836
 C         6.5962860694       -2.9835796544      -21.3461078476
 O         6.9978086651       -3.5655551365      -20.3741945369
 C         7.5433115613       -1.8318371568      -22.0299466149
 C         7.3680834098       -0.5455096096      -21.1823386010
 O         6.5596290315        0.3045965290      -21.5094537943
 C         8.2657020275       -0.4024297050      -19.8951532458
 C         7.5970478817        0.5522047319      -18.8199642334
 C         6.0081791970        0.2371441576      -18.4693626404
 O         5.5947493082       -0.8684004512      -18.6863250373
 C         5.0817642730        1.5615344105      -18.1396405288
 C         3.8407707944        0.9940697811      -17.3841037910
 O         3.0677632599        0.2352392268      -17.9471483587
 C         3.5266538085        1.5325070253      -15.9590558430
 C         2.3410497501        0.9399544102      -15.2340442958
 C         2.6145391061       -0.5868958543      -15.0566039821
 O         3.1428376292       -1.3199074883      -15.9102151928
 C         2.0354235455       -1.2832485824      -13.7962620062
 C         1.2691988663       -0.2908537634      -12.7796144362
 O         1.9418525522        0.5561641154      -12.2434352284
 C        -0.1295738231       -0.7200238539      -12.3342749739
 C        -1.0075830372        0.2232638125      -11.3816853777
 C        -2.4173771316        0.3734507001      -11.8784832870
 O        -2.6935289266       -0.0349822778      -12.9722727551
 C        -3.5524853660        0.9935176938      -10.9957775089
 C        -4.3297991077       -0.2061006692      -10.2477926497
 O        -4.4799913499       -0.2975087588       -9.0427382997
 C        -4.8634015202       -1.2437646092      -11.2242174207
 C        -4.2629486434       -2.6344786202      -11.1028914293
 C        -4.4044479805       -3.3574087266       -9.6922247465
 O        -5.3421734205       -3.0853113898       -8.9640630290
 C        -3.2888156041       -4.3406662084       -9.2319236588
 C        -2.4411945674       -3.2701777782       -8.2881701089
 O        -1.8240890792       -2.4833329167       -8.9062524173
 C        -2.7477666644       -3.1354684733       -6.7793573539
 C        -2.4815915204       -1.6257313140       -6.3978073959
 C        -2.1161358318       -1.4715284993       -4.8991220974
 O        -2.0351825147       -2.4905008361       -4.1975515219
 C        -1.6350390600       -0.1132716562       -4.3929209335
 C        -3.0776061564        0.6048070739       -4.0608513117
 O        -3.3260131917        1.6427129184       -4.5108723619
 C        -4.1818185681       -0.2839066646       -3.4284966575
 C        -5.5794595583        0.3976148185       -3.6830324764
 C        -6.0467613101        0.2445987210       -5.1613066111
 O        -5.5443833524       -0.4883256785       -5.9806455551
 C        -7.4246092948        1.0428244340       -5.4678081640
 C        -7.5586297681        1.4879195739       -6.9605896246
 O        -6.7456548987        1.1128608782       -7.7876567683
 C        -8.8106985049        2.2387656932       -7.4701626903
 C        -9.3281865146        1.6167537299       -8.7869055865
 C       -10.4024152183        0.3733294907       -8.6835935528
 O       -11.3399399635        0.2999518462       -7.9926457557
 C       -10.3911321055       -0.8008375671       -9.8631470573
 C        -9.7007404798       -2.0484139584       -9.1799055744
 O        -8.5106220364       -2.2542780649       -9.4877213062
 C       -10.4280175339       -2.8647683754       -8.1560029570
 C        -9.6109129844       -4.1799302853       -7.8305241896
 C        -8.2881515940       -4.1271167340       -6.9840013961
 O        -7.6234920059       -3.1272256699       -6.8912822990
 C        -7.8148351738       -5.4256241151       -6.1040445463
 C        -9.0723675580       -6.0337974448       -5.3189809310
 O        -9.9171382879       -6.6379904252       -5.9514362221
 C        -9.1919917307       -5.8093185806       -3.8292941652
 C       -10.6032751113       -5.5348318540       -3.3772941710
 C       -11.0003124633       -3.9248431481       -3.5724362297
 O       -10.2333682501       -3.2426890143       -4.2225129336
 C       -12.2283115397       -3.3895360168       -2.8074609519
 C       -12.0029723729       -3.4330210543       -1.2549147246
 O       -12.7229687636       -4.1035436191       -0.5311300280
 C       -10.8763475476       -2.4922898543       -0.8058906380
 C       -11.5053993413       -1.2253200768       -0.2263761730
 C       -10.6186864960       -0.0606813274        0.2521109220
 O        -9.4289265662       -0.1864232121        0.0131729413
 C       -11.1107741640        1.2918287990        0.8737429397
 C       -11.8344456909        0.9956607531        2.3051058691
 O       -12.0657672697       -0.1265852864        2.5640264687
 C       -12.2611063733        2.1071604832        3.2762067279
 C        -9.8015262804        2.1483551451        1.1964076590
 C       -12.1280435763        2.0692726327        0.1120133146
 C       -12.4273051876       -1.8778987805       -3.3423999500
 C       -13.4821766004       -4.2569771723       -3.1157571113
 C        -7.3820521573       -6.7073086466       -6.9099916976
 C        -6.6602891647       -4.8710683885       -5.2658546323
 C       -11.7977714814       -1.2176850344      -10.3066489193
 C        -9.5925079337       -0.3696183060      -11.1184515460
 C        -8.5346630452        0.0209038840       -5.1114998649
 C        -7.6143275683        2.3114667960       -4.5738730565
 C        -0.7152441547       -0.3815900918       -3.1423705005
 C        -0.9952799706        0.7456173030       -5.4684645218
 C        -3.9747736640       -5.4392570732       -8.4244368633
 C        -2.2502733700       -5.0333268325      -10.1518696880
 C        -3.1131595668        1.9730363488       -9.8313864895
 C        -4.6388087435        1.6541868418      -11.8171838390
 C         1.2167190008       -2.4156915902      -14.3695667576
 C         3.1614732774       -1.9533015668      -13.0199983418
 C         5.9170317425        2.5671503849      -17.2498536392
 C         4.6639945301        2.0869818198      -19.5339957430
 C         8.9754630453       -2.3235431029      -21.7824858193
 C         7.2935252970       -1.6263121291      -23.5458669087
 C         5.2459387291       -4.6178134595      -18.1569384676
 C         4.5582150306       -6.7969737563      -19.3966246558
 H         0.9044300552       -6.0017899556      -17.6866316715
 H         2.1058910926       -7.1893247201      -17.8261469645
 H         1.2074399464       -6.5103688376      -19.2959044515
 H         3.8520305878       -5.1311800577      -22.2400673485
 H         5.5102112334       -5.5806827924      -21.6968927769
 H         4.6123605628       -2.8561662444      -22.5154315579
 H         5.9757510501       -4.0768114159      -22.9902193587
 H         9.2601185138       -0.0752395433      -20.1300168020
 H         8.3056758509       -1.4119743931      -19.4428325764
 H         7.5913932052        1.6385686201      -19.1324819204
 H         8.1646133918        0.5878424722      -17.8934356949
 H         3.3893276012        2.6136179461      -15.9440414338
 H         4.3830077705        1.3694319702      -15.2800889266
 H         1.4396300783        1.2696672183      -15.8259354066
 H         2.1959827301        1.3745124880      -14.2261311786
 H         0.1277698704       -1.5818424595      -11.7561056598
 H        -0.6463730483       -1.0757404197      -13.2129057662
 H        -0.5415770421        1.1911204994      -11.2047039168
 H        -1.0814159479       -0.2550721931      -10.4232382333
 H        -4.6383465057       -0.9966647382      -12.3045340473
 H        -5.9951556977       -1.2834340984      -11.0914260606
 H        -3.2014726669       -2.6551052367      -11.3870412381
 H        -4.8522478036       -3.2509026474      -11.7769285610
 H        -2.0615038530       -3.7222503670       -6.1370698607
 H        -3.7697559890       -3.3798570163       -6.6010968914
 H        -3.1968069091       -0.9749749730       -6.8987031450
 H        -1.5372107034       -1.3570107498       -6.9976246872
 H        -3.9539531050       -0.4735921156       -2.4032986821
 H        -4.1871897211       -1.3378756108       -3.8295037951
 H        -5.4986109674        1.4938934579       -3.5152996197
 H        -6.3990479328        0.0917492397       -3.0361073383
 H        -8.4934862454        3.3010212902       -7.6081325883
 H        -9.6539763417        2.2871961507       -6.8132833520
 H        -8.4922071284        1.0939169411       -9.3023138132
 H        -9.8318746450        2.4035652396       -9.3323968742
 H       -11.2984873888       -3.3963306791       -8.5324695000
 H       -10.6565136051       -2.2767221409       -7.2405631589
 H        -9.3139632372       -4.6835849317       -8.8214906603
 H       -10.3027855084       -4.9867396334       -7.4100984262
 H        -8.4339759950       -5.0518541384       -3.5776440688
 H        -8.8571390951       -6.7422793982       -3.3567031052
 H       -10.8801272852       -5.9655706988       -2.3644204065
 H       -11.2920730731       -5.9873586818       -4.0630632965
 H       -10.2148106278       -2.3918149686       -1.6620373324
 H       -10.2894969670       -3.0433936406       -0.0717403499
 H       -12.1327814247       -1.5020604724        0.6444107659
 H       -12.2938446044       -0.7481476124       -0.8835018222
 H       -12.2041636543        1.8238094326        4.2930786132
 H       -13.1942075841        2.4955717217        3.0216071492
 H       -11.5960557774        2.9364201111        3.1545131504
 H        -9.9799504783        2.9263132913        1.8461515124
 H        -9.4286738957        2.4958924721        0.2549038912
 H        -9.1716147222        1.4714458590        1.6409187431
 H       -11.8245607585        2.0473566816       -0.9453449426
 H       -12.2938275558        3.0866925838        0.4077280663
 H       -13.0718435158        1.5370630684        0.1266541790
 H       -12.5059184897       -1.9252019114       -4.4633248399
 H       -11.6380075993       -1.1230235057       -3.1785744387
 H       -13.3001357490       -1.5812813074       -2.9118672329
 H       -14.3159048833       -3.9810044083       -2.4261853477
 H       -13.3033781447       -5.2783161650       -2.6361182521
 H       -13.8430699972       -4.2997739070       -4.2117080944
 H        -6.7895134078       -6.5427058811       -7.8316278728
 H        -8.2790757187       -7.2305115038       -7.2620826417
 H        -6.7834801143       -7.3133295479       -6.2903454026
 H        -6.8399719772       -3.9517563150       -4.8069671218
 H        -5.8372495290       -4.6828237955       -5.9653011374
 H        -6.3413890843       -5.5420241938       -4.4640175791
 H       -11.6479857529       -1.9680718653      -11.0500701830
 H       -12.2779056174       -0.4031569896      -10.8029269750
 H       -12.3467353445       -1.6654112324       -9.5042224808
 H        -8.6790446550       -0.0013115983      -10.8083718774
 H       -10.1540085760        0.4270338026      -11.6512637078
 H        -9.4055629185       -1.1710422684      -11.8901349517
 H        -9.4278995129        0.5819862452       -4.8795567264
 H        -8.1786509708       -0.3639525171       -4.1736477916
 H        -8.7201488691       -0.7255092759       -5.8080674954
 H        -8.5972898721        2.7314158107       -4.6945505477
 H        -6.8770510230        2.9641356432       -4.8963177833
 H        -7.5873953511        2.1743321683       -3.5106622001
 H        -1.4473956488       -0.6909501054       -2.3713635040
 H        -0.0932304044        0.5319346498       -2.8768687232
 H        -0.0597395045       -1.2266246602       -3.5160078004
 H        -1.7513775494        0.7805409375       -6.3024056787
 H        -0.0673249705        0.2725870226       -5.8650835281
 H        -0.8097007675        1.7364933462       -5.1380808823
 H        -3.3419759407       -5.7247391934       -7.6119759911
 H        -4.2864047403       -6.2865612229       -8.9400003712
 H        -4.9507615208       -5.0917678425       -7.9869164070
 H        -2.7215071414       -5.9381736849      -10.5457501448
 H        -1.2536660280       -5.4617665878       -9.7051847418
 H        -1.8403444525       -4.3700757387      -10.9643740528
 H        -2.5983638056        2.9341319138      -10.2157134731
 H        -2.3786117646        1.5518570284       -9.0943981061
 H        -3.9237533708        2.3473828247       -9.2956275328
 H        -5.3066261961        0.9669447215      -12.2743815960
 H        -4.4020442914        2.5232589045      -12.4862424952
 H        -5.2151354831        2.2166229412      -11.1154201689
 H         0.1772085171       -2.2593901813      -14.5654863979
 H         1.1373362082       -3.2736838127      -13.7046831073
 H         1.7852110596       -2.7938625792      -15.2406872769
 H         3.6528670534       -2.7041684646      -13.7334452545
 H         2.8805702854       -2.4617397427      -12.0748451809
 H         4.0204813693       -1.2404962538      -12.7692883481
 H         5.2222420872        3.3281495808      -16.9642620762
 H         6.9063326026        2.9426809024      -17.5739790864
 H         6.1432829153        2.1082100795      -16.3210892427
 H         5.3284055728        2.3677065010      -20.3034811631
 H         4.2615483567        3.1449189838      -19.4228911027
 H         3.9874785917        1.4547253934      -20.0421266689
 H         9.2128042422       -3.2957866017      -22.3485800860
 H         9.2323088377       -2.5796749935      -20.7552444445
 H         9.6212757986       -1.4646062133      -22.2187506119
 H         7.8439776172       -0.7562910548      -23.9543172980
 H         6.2119297497       -1.3985751282      -23.8209580108
 H         7.5870987176       -2.4847583612      -24.0038573999
 H         5.3502371547       -3.5440686493      -18.2254196275
 H         6.1500827590       -5.1416014703      -18.3948308056
 H         5.1700948470       -4.9987076391      -17.1551776189
 H         3.7867806924       -7.1765854560      -20.1025438097
 H         4.6089982583       -7.4800246696      -18.5162210962
 H         5.5337226797       -6.7615499887      -19.8540586410
 Na        3.4490426232       -1.8949672722      -18.5209246644
 Na       -6.3121922403       -1.3565990071       -8.2461317306
