232

 C       -17.2941052667       -5.1687448270       -4.3556420762
 C       -17.9128134812       -6.3820455373       -3.6779921439
 O       -17.2522736327       -7.4506602287       -3.7161120511
 C       -19.4103078663       -6.4972337004       -3.0751251923
 C       -19.3627576848       -6.6849037329       -1.5445849328
 O       -19.3434195380       -7.8689420907       -1.1762634795
 C       -19.5080493608       -5.5745241099       -0.4736716917
 C       -18.5270521236       -5.6792148885        0.7041912337
 C       -17.0904276319       -5.6634377596        0.1364855324
 O       -16.9274075666       -5.1762322244       -0.9584746913
 C       -15.8473320090       -6.3786690120        0.8748300572
 C       -15.8909022613       -7.8300541509        0.3577000505
 O       -16.9078133234       -8.5156626160        0.3489799266
 C       -14.5470160604       -8.4936897514       -0.1972336963
 C       -14.6259242175       -9.9852667749       -0.3512053335
 C       -14.7947762706      -10.3716751709       -1.9185091698
 O       -15.8897040926      -10.2125857123       -2.4525056970
 C       -13.6453289943      -10.9249345624       -2.8433999685
 C       -13.0374874974       -9.7138201612       -3.6369366772
 O       -12.9915173978       -8.6076180719       -3.1341869554
 C       -12.4477713980       -9.9144041285       -5.0358775593
 C       -11.6434916506       -8.5872229811       -5.3641715174
 C       -10.4574808566       -8.9989981697       -6.2552999134
 O        -9.7266367818       -9.8961056322       -5.8464349652
 C       -10.3396160316       -8.3138167161       -7.7309468785
 C       -10.5168270458       -6.6820478429       -7.7229316842
 O       -11.0121344472       -6.1198285376       -6.7813496500
 C       -10.2297639541       -5.8577398912       -9.1006559409
 C        -9.3339730134       -4.6619836889       -8.9722928534
 C        -9.3401676766       -3.5254328385       -9.9734832794
 O       -10.0280928180       -3.4666484039      -10.9971792892
 C        -8.4482148621       -2.2639134892       -9.6325218325
 C        -7.0212695259       -2.4685576215      -10.3935249073
 O        -6.5434826893       -3.5890664267      -10.3466220681
 C        -6.4218112470       -1.3329180491      -11.2609418074
 C        -5.1302968286       -1.7385692757      -11.9716577716
 C        -4.7430999700       -1.0630123724      -13.2697642098
 O        -5.5570785829       -0.4060249645      -13.9046330434
 C        -3.4313991456       -1.6727307475      -13.8869321495
 C        -2.3130604181       -2.1458302044      -12.8873950699
 O        -2.0477380049       -1.5895250886      -11.8308506757
 C        -1.2361346344       -3.0741387601      -13.4992762152
 C         0.0663276868       -3.1546412134      -12.7615794013
 C         0.5260512083       -1.8044275448      -12.1132988178
 O         0.5238622909       -0.7260429595      -12.6405320449
 C         1.1299630368       -1.8460506434      -10.5616038090
 C         2.2555960150       -0.7625794652      -10.6286618691
 O         3.3629337136       -1.1359465981      -11.1197923922
 C         1.9714674190        0.7101808460      -10.2261440481
 C         3.2076567157        1.5416111874      -10.3255174727
 C         2.8783720082        3.0795149806      -10.1612901319
 O         1.7367177341        3.4500222852      -10.1700440263
 C         4.1870847180        4.0056397160      -10.1607700448
 C         4.3568860947        4.4535648649      -11.6104004325
 O         5.3194925868        3.9868076829      -12.2575717616
 C         3.3632672802        5.4321466597      -12.1583488173
 C         4.1106853713        6.8218742884      -12.3496072570
 C         4.9354357289        6.9773879725      -13.6255563548
 O         4.9716974309        6.1982204778      -14.5538985205
 C         5.7913234376        8.1773272324      -13.7929291889
 C         7.2870467615        7.7092095797      -14.3779535957
 O         7.6524176646        8.0374835257      -15.4411721141
 C         8.2032706860        6.6759992170      -13.5841099755
 C         9.1607632905        5.9544565501      -14.6511406219
 C         8.4016300058        5.5324889364      -15.9874033940
 O         7.4687672836        4.7691180718      -15.9610338475
 C         9.0268845434        5.9837167139      -17.3847216089
 C         9.6375311518        4.7219382605      -17.9096220852
 O         9.6112510089        3.7275362785      -17.1694520497
 C        10.1777620608        4.6102256661      -19.3954095974
 C        10.1243884987        3.1839156577      -19.8667702277
 C         8.6090604005        2.6098474433      -19.7390039041
 O         7.6624546449        3.3264583733      -19.5705274146
 C         8.5330800035        0.9658411273      -19.6582790012
 C         8.6622991446        0.4928614424      -18.2164577394
 O         9.6047397083       -0.1940034177      -17.8105029226
 C         7.7474655359        1.1746917717      -17.1935957229
 C         8.0693912130        0.5827087452      -15.8218853767
 C         7.1339826963        0.9949631234      -14.7368407610
 O         7.2945186306        2.1278009839      -14.2678537847
 C         6.0158972921        0.0609613353      -14.2861649179
 C         4.5875343623        0.6905558853      -14.3095974324
 O         4.4107142414        1.9259995507      -14.2576276085
 C         3.3741878622       -0.2267752913      -14.3364520146
 C         6.1169167896       -1.4606972011      -14.8038852479
 C         6.2092051255       -0.0035242383      -12.6353257078
 C         7.1109809571        0.5903838945      -20.0304113183
 C         9.4174644417        0.2706268962      -20.7208436231
 C         7.8198060222        6.4576322715      -18.3152485322
 C        10.1300447771        7.0461458311      -17.2355217704
 C         5.1407108039        9.1567268498      -14.7850966652
 C         6.0548838482        8.8809867458      -12.3787660523
 C         3.9225840883        5.2421708784       -9.1816011439
 C         5.5936040275        3.4166432406       -9.7381577563
 C         0.0313952676       -1.4448678365       -9.4964647011
 C         1.7778638885       -3.1993193138      -10.2078730747
 C        -3.9657145525       -2.9211872867      -14.6506721436
 C        -2.7920675570       -0.5744965487      -14.7317389906
 C        -9.1561504985       -0.9223186109       -9.9739140510
 C        -8.0406829531       -2.2634707130       -8.0866502726
 C        -8.9366096099       -8.6996005990       -8.2887898485
 C       -11.5859354598       -8.7302137879       -8.6061483723
 C       -12.5249498402      -11.4380662819       -1.8437195727
 C       -14.3368757931      -12.0552468808       -3.6568995842
 C       -14.5959480538       -5.5545006751        0.3383909320
 C       -15.8438603311       -6.2571281382        2.4066909395
 C       -20.2754804595       -5.1758718690       -3.3575471130
 C       -19.9958050619       -7.7194411606       -3.9113205148
 H       -17.2009865147       -4.3126352425       -3.6483951393
 H       -17.8715981999       -4.9457193822       -5.2504153370
 H       -16.2388973374       -5.4230330937       -4.6474917361
 H       -20.5236395211       -5.6134242047       -0.0432948894
 H       -19.4280575152       -4.6107571144       -0.9206569376
 H       -18.7183819750       -6.6090268346        1.1946431092
 H       -18.6023719681       -4.8756733141        1.4393189792
 H       -13.6332612772       -8.2915455530        0.4076049788
 H       -14.4077953050       -8.0743853352       -1.1846498757
 H       -15.5302675948      -10.4223429489        0.1999388065
 H       -13.7251350522      -10.4716688028       -0.0199801457
 H       -13.2535342009      -10.0851864165       -5.7107508198
 H       -11.8219570701      -10.7690948087       -5.0850365157
 H       -11.2053521311       -8.2097219565       -4.4281988266
 H       -12.3605789683       -7.8596209623       -5.7555690385
 H       -11.2330508946       -5.6936040235       -9.5882402142
 H        -9.8488599119       -6.5114885153       -9.9166608019
 H        -8.2933633575       -4.9422739328       -8.8893753050
 H        -9.5945354955       -4.2008009276       -8.0621873203
 H        -6.1772157502       -0.4954803733      -10.5357839014
 H        -7.1743226599       -1.0024128100      -11.8916952996
 H        -5.1176692014       -2.8962995825      -11.9851496243
 H        -4.3560709354       -1.5430261079      -11.2946991020
 H        -1.1606243753       -2.6168812734      -14.4905648217
 H        -1.7864652617       -4.0727496760      -13.4840939866
 H         0.9514483933       -3.1893580128      -13.4000787403
 H         0.1275382314       -3.8782397594      -12.0652370725
 H         1.5609794257        0.6312350599       -9.2853485849
 H         1.1142792121        1.0305935517      -10.8698722600
 H         3.6222480745        1.3284050391      -11.3257750359
 H         4.0835011672        1.1379917469       -9.8084347417
 H         2.5462438807        5.5227058163      -11.4816244658
 H         3.0457336464        5.0347134358      -13.1639197673
 H         4.7557975266        7.1421230589      -11.5133786926
 H         3.3744103469        7.6403788516      -12.3177476551
 H         7.6714172498        5.9860041749      -12.9591285018
 H         8.8346215911        7.2701977735      -12.8887284083
 H         9.4664488324        5.0442443583      -14.2096175360
 H        10.0586051609        6.7194429089      -14.8547513091
 H        11.2550538041        4.8669428764      -19.3202013875
 H         9.7305612555        5.2807894580      -20.0733868315
 H        10.7381436572        2.4518142753      -19.2961002210
 H        10.4718967745        3.1232997511      -20.8561209113
 H         6.6515379583        0.9890255911      -17.4188791139
 H         7.8655989414        2.2586122057      -17.2977148934
 H         9.0463576192        0.8569138466      -15.5547724964
 H         7.9708434681       -0.5197446239      -15.9870842380
 H         3.4126832423       -1.2301210795      -14.7843636915
 H         2.4735622935        0.3651048920      -14.4779196636
 H         3.1589877373       -0.4359587607      -13.2930400265
 H         5.4190209244       -2.0632286951      -14.2864031862
 H         7.1753310395       -1.7853162238      -14.6532352637
 H         5.9870032229       -1.4098554421      -15.8656930779
 H         5.3236611583       -0.3865510876      -12.0613554366
 H         6.4888447728        0.9029778543      -12.2433189721
 H         6.9978888576       -0.5849154828      -12.2510753154
 H         6.7907462445       -0.4799550788      -19.9060225420
 H         7.0170926771        0.7622401971      -21.1340727511
 H         6.3612335845        1.1728065915      -19.4070529818
 H         9.2354149380       -0.8139105046      -20.6467308822
 H        10.4305327560        0.3452979268      -20.3202749688
 H         9.3180511041        0.7240874028      -21.7087046581
 H         7.1069561778        7.1779351038      -17.8056475531
 H         7.3386434447        5.5616230687      -18.7680441259
 H         8.2708570331        7.0291098375      -19.1484797224
 H        11.0258460394        6.6513417645      -16.8746273312
 H         9.7370298813        7.8769513170      -16.5767362237
 H        10.2312639468        7.4762047572      -18.2040656948
 H         5.5569792980       10.1769551573      -14.8200566361
 H         4.1601276942        9.3456232271      -14.4331701240
 H         5.0547267891        8.5604397453      -15.7401039472
 H         6.3053491448        9.8894600398      -12.5663902675
 H         6.9619734689        8.3436104985      -11.9440676024
 H         5.2681123721        8.9888341353      -11.6457100801
 H         4.3233683075        4.8560923930       -8.2510451471
 H         2.8503060947        5.5140608291       -9.2607812008
 H         4.6134828396        6.0366258471       -9.2816076591
 H         6.1361802074        4.1241396113       -9.1475519349
 H         6.1270769484        3.0247501815      -10.6335207041
 H         5.5359098428        2.4464991132       -9.1435843807
 H        -0.4098558662       -0.4333344878       -9.6611893229
 H         0.6342398346       -1.3942568018       -8.6062688189
 H        -0.7169279236       -2.2090356853       -9.4307549972
 H         1.0177150875       -3.8977400142       -9.7549846756
 H         2.5465070532       -3.0767092543       -9.3748934463
 H         2.2678223927       -3.7702006629      -11.0129919040
 H        -4.6911260111       -3.5048394004      -14.0648640035
 H        -3.2329684594       -3.5305136010      -15.0908476824
 H        -4.5215375083       -2.5075979181      -15.5119856769
 H        -2.4818732296       -1.0149489419      -15.7027814971
 H        -1.8929517752       -0.2350175103      -14.2918181459
 H        -3.4695588858        0.1827980632      -14.9431881447
 H       -10.0220883245       -0.8600167152       -9.2750507362
 H        -9.6575680761       -1.1364094986      -10.9243664748
 H        -8.4068308974       -0.1633876746      -10.0340872248
 H        -8.9151888245       -2.0089551134       -7.5344216229
 H        -7.2040606437       -1.5501834966       -8.0292877017
 H        -7.6289018754       -3.2177971544       -7.7257146340
 H        -8.8546929659       -8.2998509918       -9.2799918779
 H        -8.6812943555       -9.7138477239       -8.4420826670
 H        -8.1363345280       -8.2074892732       -7.7323606489
 H       -11.8133627429       -9.7799113718       -8.4689624659
 H       -11.5354742224       -8.3854380848       -9.6656505608
 H       -12.4495874602       -8.1937301221       -8.2204885438
 H       -12.0779466721      -10.4697652403       -1.4850391159
 H       -11.7492903759      -11.8819230933       -2.3767630623
 H       -12.9066249607      -12.1056386536       -1.0553431566
 H       -15.1566402678      -11.6616337358       -4.3913497313
 H       -14.7934050048      -12.8512437894       -3.0299972918
 H       -13.5428437026      -12.5512932494       -4.2292085192
 H       -14.3947012661       -5.6593080136       -0.7576836265
 H       -13.6787949732       -5.9075434932        0.8241640204
 H       -14.8292577885       -4.5209665827        0.6163888453
 H       -16.6680031308       -6.9930332469        2.6734256077
 H       -16.1347205221       -5.2601152844        2.6035780446
 H       -14.8386510028       -6.5803727260        2.8495493725
 H       -19.8000077132       -4.3175941340       -2.9271654613
 H       -21.3561499507       -5.2320787314       -3.0506679635
 H       -20.1386896374       -5.0732003252       -4.5252577859
 H       -21.0009760782       -8.1247386128       -3.6301154399
 H       -19.3122929668       -8.5821386153       -3.8673911479
 H       -20.0675345790       -7.3740368319       -4.9255150577
 Na      -17.8415040275       -9.1554097565       -1.9778001157
 Na        5.9066500011        3.8596174008      -14.4356906289
