232

 C         1.9223817027       -6.3414289577      -18.3486772146
 C         2.8108756427       -5.0732213547      -18.3680391483
 O         2.5003703602       -4.0243798811      -17.9526568219
 C         4.1885514528       -5.2170826442      -19.0735008331
 C         3.9882579300       -4.3603915261      -20.4318517472
 O         3.5001321622       -3.2412939507      -20.3147118341
 C         4.7178875818       -4.8353469894      -21.7253686641
 C         5.5113869510       -3.6734651107      -22.3360965799
 C         6.7119928160       -3.1735357947      -21.4872770070
 O         6.8993264942       -3.4606387387      -20.3412954871
 C         7.5500312617       -1.8268756896      -22.0257191160
 C         7.2259227607       -0.5335513034      -21.1013868354
 O         6.4621103102        0.4015496124      -21.3931224361
 C         8.0488736899       -0.4261749575      -19.8623709992
 C         7.4613549486        0.5913303605      -18.9057931764
 C         5.9547172125        0.2425407270      -18.5836276037
 O         5.5861407704       -0.9259530505      -18.5788579462
 C         5.1003123079        1.4231918397      -18.1038758123
 C         3.8223594756        0.9818110148      -17.4367455461
 O         3.0117527834        0.2673434788      -17.9877817647
 C         3.5564004600        1.5692387030      -16.0624833940
 C         2.4097688980        0.8285040776      -15.3384917521
 C         2.5391061041       -0.6453737651      -15.0785010430
 O         3.1825948879       -1.3249695090      -15.8470740501
 C         2.0190306815       -1.4550707465      -13.7978827503
 C         1.3434247895       -0.4548529533      -12.7664688686
 O         1.8490976024        0.5885130465      -12.3730178296
 C        -0.1948971829       -0.8876495737      -12.2519906313
 C        -0.9558184414        0.2004412945      -11.3420468936
 C        -2.3871017241        0.4355625711      -11.9716144844
 O        -2.7853960042       -0.0810498826      -13.0307768473
 C        -3.5313536759        1.0024350275      -10.9696541961
 C        -4.2664192008       -0.2011826716      -10.3166127791
 O        -4.4605212415       -0.2938364312       -9.1157357049
 C        -4.9468817869       -1.3552734443      -11.2936026050
 C        -4.2659859114       -2.7016110741      -11.0589995048
 C        -4.3498164925       -3.3312217860       -9.6947109522
 O        -5.2195559849       -3.0841983683       -8.8300385979
 C        -3.2388459334       -4.3402546346       -9.1868758319
 C        -2.5405000228       -3.1904417903       -8.3973063975
 O        -1.7276561210       -2.4233960446       -8.9067995451
 C        -2.8195894562       -3.0518488493       -6.8844940616
 C        -2.3642868808       -1.6617214906       -6.4563686066
 C        -1.9450507495       -1.5554707342       -5.0052414121
 O        -2.0710774644       -2.5114966920       -4.2530102165
 C        -1.6972328110       -0.1176864391       -4.4667013577
 C        -3.0702897893        0.5846019145       -4.0884980644
 O        -3.2876730470        1.7353709892       -4.4342307884
 C        -4.1463860895       -0.2936183443       -3.5358165503
 C        -5.5435460408        0.3742947363       -3.7359161937
 C        -6.0531697146        0.3531374564       -5.2049848439
 O        -5.5043166593       -0.4123768792       -5.9848875503
 C        -7.3991271660        1.0733559947       -5.4311029459
 C        -7.6141834573        1.4610813756       -6.9633440434
 O        -6.6862904923        1.3270062037       -7.7818931933
 C        -8.9543035202        2.0507780487       -7.4276399941
 C        -9.3264673965        1.4099218683       -8.8268509955
 C       -10.4516910792        0.3906220632       -8.8021627412
 O       -11.2427252381        0.4119543877       -7.9025490059
 C       -10.4064894833       -0.8061475650       -9.8736262396
 C        -9.5843949395       -1.9201585746       -9.1070832153
 O        -8.3770408619       -2.0312290247       -9.3535293001
 C       -10.3422587752       -2.8117104209       -8.1452186717
 C        -9.6661048216       -4.2698875498       -7.7921566500
 C        -8.3050959844       -4.1764086953       -7.0176954359
 O        -7.6608554933       -3.1362287790       -6.9388605887
 C        -7.8111690136       -5.4375587636       -6.2173733401
 C        -9.0177148216       -5.9303305898       -5.3141983828
 O        -9.8992789281       -6.5075101886       -5.8915636370
 C        -9.2213743715       -5.8849697019       -3.7099958439
 C       -10.6584004293       -5.5280873749       -3.4108723130
 C       -11.0358819488       -3.9800251985       -3.5279811086
 O       -10.3383336783       -3.2552638948       -4.1868500341
 C       -12.2936140803       -3.4161105020       -2.7378236312
 C       -11.9254549252       -3.4250392708       -1.2501502254
 O       -12.4936798719       -4.1510755368       -0.4622495774
 C       -10.9366193688       -2.3664115301       -0.6676039232
 C       -11.6541246074       -1.1523469129       -0.2258634530
 C       -10.5879155385       -0.0526888788        0.1459099107
 O        -9.4146134031       -0.3107290537       -0.0529752348
 C       -11.0586945682        1.2592351831        0.9457890505
 C       -11.8040669943        0.9518086994        2.3820789010
 O       -12.2297894630       -0.1856324288        2.5803687708
 C       -12.2444390358        2.0792420585        3.2963194562
 C        -9.7834530536        2.1280354339        1.2645045695
 C       -12.1304109167        2.0500539719        0.0519107579
 C       -12.3869685595       -1.9833313645       -3.3300364923
 C       -13.5215142897       -4.2647770481       -3.1395776612
 C        -7.4063663585       -6.7059524217       -7.0132296252
 C        -6.6000605391       -4.9819583125       -5.4108191638
 C       -11.8524744409       -1.3204571088      -10.2375455566
 C        -9.6184256153       -0.4577845162      -11.1873999904
 C        -8.5569761654        0.1057012826       -4.9692553867
 C        -7.5611291917        2.3731496376       -4.5842992185
 C        -0.7422510508       -0.2711337951       -3.2050266723
 C        -0.9548188117        0.8233684470       -5.4373898723
 C        -3.8579269916       -5.4041905361       -8.2906467256
 C        -2.3065311889       -4.9804408335      -10.1346716053
 C        -2.9958242279        1.9531046032       -9.8529927838
 C        -4.6199859705        1.7624772381      -11.8674464921
 C         1.0533445735       -2.5769442510      -14.2276270648
 C         3.3298426322       -1.8881415152      -13.0259278554
 C         5.7688874038        2.5157403280      -17.2576174947
 C         4.6524624154        1.9996797162      -19.4456670641
 C         8.9951064537       -2.2319116911      -21.9462901693
 C         7.3111593945       -1.3972260631      -23.4759537397
 C         5.3562285039       -4.6367460463      -18.1692603511
 C         4.3089222242       -6.6561146816      -19.4078012244
 H         1.0582672368       -6.2963955451      -17.6794208464
 H         2.3292614736       -7.3057317717      -18.1262780435
 H         1.4753969580       -6.3643333114      -19.3395613309
 H         3.7923471326       -5.0338250267      -22.3730260088
 H         5.4316880079       -5.6421727724      -21.6865754351
 H         4.8491248699       -2.8311308599      -22.2441840014
 H         5.8759343454       -3.8924432964      -23.3677938462
 H         9.0279472877       -0.0137144100      -20.1985126818
 H         8.1653117276       -1.3891943532      -19.3947172307
 H         7.5019885931        1.6240266989      -19.2534526067
 H         8.0028123242        0.6354167532      -17.9254370524
 H         3.3064454414        2.6294907727      -16.0028227733
 H         4.4443505852        1.4727827633      -15.4378722566
 H         1.4236437692        0.9420314317      -16.0248403387
 H         2.1277425818        1.3165226653      -14.4056867493
 H        -0.1462015968       -1.8129630227      -11.7544088689
 H        -0.7384423029       -1.0162749664      -13.1722613377
 H        -0.3916996533        1.0806335914      -11.1839513228
 H        -1.1788988320       -0.1451718917      -10.3703451649
 H        -4.9401979157       -1.1921932241      -12.3555172378
 H        -5.9562071603       -1.3978951915      -10.9092205232
 H        -3.2219900025       -2.5949029286      -11.1706754815
 H        -4.6197784037       -3.5010148722      -11.6837006873
 H        -2.1682117069       -3.7883067902       -6.3527975132
 H        -3.8434147917       -3.1467605760       -6.5709980351
 H        -3.2605627367       -1.0257248197       -6.5811505846
 H        -1.7238490403       -1.2614486059       -7.1944981480
 H        -3.9186203610       -0.2618363407       -2.4122816708
 H        -4.1020106381       -1.3433248761       -3.7562575703
 H        -5.6052571577        1.3135003931       -3.1977465631
 H        -6.3799182987       -0.2508028099       -3.2303449815
 H        -8.7228400000        3.1070266337       -7.5387456399
 H        -9.9127006202        2.0649799353       -6.7477114611
 H        -8.4484040674        0.8193523267       -9.1875164592
 H        -9.6680951351        2.2457285445       -9.4728678961
 H       -11.3808188620       -3.1817290069       -8.3388734710
 H       -10.2616159466       -2.2227503872       -7.2452801378
 H        -9.5419486551       -4.9962699982       -8.6915797228
 H       -10.3659135383       -4.8572299702       -7.1547892296
 H        -8.4909368147       -5.2575739428       -3.1891351896
 H        -9.0135057360       -6.9205264535       -3.3638530973
 H       -10.9158047245       -5.8030724721       -2.3367784579
 H       -11.4476304980       -6.0477691440       -4.0020360856
 H       -10.3043085722       -2.1341340445       -1.4849055284
 H       -10.2650534805       -2.7278010643        0.1106436598
 H       -12.3391949627       -1.3184089063        0.6239483046
 H       -12.3453166404       -0.6954670579       -0.9726489224
 H       -12.2813871570        1.6002755203        4.2256128355
 H       -13.1688821475        2.5779971380        3.0736394470
 H       -11.5146609121        2.9014898405        3.3888510836
 H        -9.9133846693        3.0459685245        1.7743491441
 H        -9.3722276797        2.3557589408        0.3522087330
 H        -9.1805586125        1.4907156573        1.8362117450
 H       -11.8321621975        1.9797584865       -0.9451271309
 H       -12.2170053531        3.1495013185        0.3037665048
 H       -13.1335886801        1.5857061907        0.0554489683
 H       -12.5159237543       -1.7709014381       -4.4192811123
 H       -11.4238301721       -1.5366501522       -3.1899077727
 H       -13.0203122309       -1.4842925694       -2.5960539635
 H       -14.4162664836       -3.7812798305       -2.6942364842
 H       -13.5351138373       -5.1516870462       -2.4416388335
 H       -13.7184713068       -4.5087757834       -4.2463525964
 H        -6.4876755461       -6.5404434579       -7.5752654698
 H        -8.1319164342       -6.9498742132       -7.7011998239
 H        -7.1681409296       -7.5634535069       -6.3248313375
 H        -6.8466220430       -4.1448127095       -4.7448600083
 H        -5.7873050652       -4.6731579750       -6.0719882508
 H        -6.2540244284       -5.7387194079       -4.7396964941
 H       -11.7907512924       -1.9596683228      -11.0653017249
 H       -12.3358875466       -0.4019266936      -10.6321110478
 H       -12.3937434679       -1.8673903178       -9.4165144935
 H        -8.6895672935       -0.0181435905      -10.9212064637
 H       -10.1421980358        0.1671330782      -11.9166612029
 H        -9.3861699199       -1.4104383993      -11.6714152109
 H        -9.4507353328        0.7005466586       -4.9213178983
 H        -8.3252916873       -0.2491448049       -3.9599727210
 H        -8.6065325324       -0.7216675229       -5.5820262361
 H        -8.5575972135        2.8068011883       -4.6381534905
 H        -6.8467574456        3.0008936249       -5.0008263120
 H        -7.3745676971        2.2441136098       -3.5644669825
 H        -1.1076051144       -1.0934564775       -2.5897854007
 H        -0.7143671600        0.6918687471       -2.6673839745
 H         0.2932399273       -0.4452971393       -3.7942224887
 H        -1.5038476045        1.2164009454       -6.2230432994
 H        -0.0971280122        0.2248856047       -5.8436748641
 H        -0.5196962469        1.5860843777       -4.8338238321
 H        -3.1701479908       -5.9139769571       -7.6260356490
 H        -4.2489283357       -6.0816398560       -9.0392688837
 H        -4.7276709624       -5.2055066729       -7.7857141089
 H        -2.8453091093       -5.4939433245      -10.9674715264
 H        -1.6082897906       -5.7351056124       -9.8120721417
 H        -1.6678785491       -4.1539693915      -10.5164601830
 H        -2.0752428437        2.4857760460      -10.1317562030
 H        -2.7986302217        1.4895478323       -8.8999807160
 H        -3.6987686734        2.7221452059       -9.6012354508
 H        -5.3698330578        1.0782195036      -12.2449864071
 H        -4.1201892121        2.2353344280      -12.7631851529
 H        -5.0600894499        2.6940532110      -11.5187575038
 H         0.0269777333       -2.1635540511      -14.4686312586
 H         0.7675073531       -3.3724625604      -13.5112433395
 H         1.4994995889       -3.1064672161      -15.0847884060
 H         3.8134198288       -2.6918470910      -13.6533046534
 H         3.1858980065       -2.2384057114      -11.9815098305
 H         4.1215353801       -1.1211605660      -13.0351311038
 H         5.0622147353        3.1977173647      -16.9146435600
 H         6.7060319083        2.9628272088      -17.6649797758
 H         6.1301997948        1.9926493571      -16.3953499346
 H         5.3146349002        2.1778280217      -20.2856948413
 H         4.4574515477        2.9882871889      -19.2939170433
 H         3.7729071971        1.4893596417      -19.9839865800
 H         9.1623996267       -3.1622965339      -22.4052330885
 H         9.5032402788       -2.3593548802      -20.9077484874
 H         9.4803571752       -1.4551355481      -22.5680471457
 H         8.1210744054       -0.7862365634      -23.8559045195
 H         6.5011255447       -0.7319717950      -23.4938929643
 H         7.0935871030       -2.3062792305      -24.0984563820
 H         5.4881733625       -3.5405110299      -18.5186774507
 H         6.2810360226       -5.2628426214      -18.2270190722
 H         5.1698420898       -4.7079875051      -17.0877733547
 H         3.5666009002       -6.8848725524      -20.2298426971
 H         4.1314660957       -7.3186181940      -18.5338158090
 H         5.3802981437       -6.8221084378      -19.7685765255
 Na        3.3587484417       -1.9721600820      -18.4401246334
 Na       -6.4886938106       -1.5090199135       -8.0090265819
