232

 C         1.9344444910       -6.1876067685      -18.4969622012
 C         2.9430469755       -5.0203050171      -18.5346008957
 O         2.5207923219       -3.9746243291      -18.0725812911
 C         4.3687227531       -5.1510424676      -19.2140108010
 C         4.3849480929       -4.0251668588      -20.3662219733
 O         4.2536706193       -2.8424744054      -19.9907252595
 C         4.6223115960       -4.4041634759      -21.8546181365
 C         5.3660227794       -3.1648995809      -22.6403668976
 C         6.6597227946       -2.7866015881      -21.9432075359
 O         7.0514106991       -3.5592796351      -21.0685486061
 C         7.4900551239       -1.4836116873      -22.3204037664
 C         7.0010878772       -0.4917097710      -21.1850454529
 O         5.9965511348        0.1100914006      -21.3979913350
 C         7.7349283185       -0.6032455130      -19.7768291852
 C         7.2764094044        0.4468977713      -18.6939244093
 C         5.8331294672        0.2351921561      -18.2967268026
 O         5.5353972736       -0.9005172519      -18.0898683245
 C         4.7649822764        1.4806209397      -18.1603971794
 C         3.3891706492        0.8952442483      -17.6394729365
 O         2.6011574026        0.3888913774      -18.4384233659
 C         3.1950361665        0.9460402459      -16.1347356616
 C         2.0584660627        0.2056924673      -15.5030595182
 C         2.5469771724       -1.2438559337      -15.0627984652
 O         3.1594464339       -2.0225908596      -15.7743207891
 C         2.0290000644       -1.7027461027      -13.5922291946
 C         0.9244779023       -0.7161366613      -12.8748511864
 O         1.1767074063        0.4525333281      -12.7526437414
 C        -0.2986823895       -1.3534079249      -12.2686235352
 C        -1.0394875623       -0.4741952769      -11.3317125914
 C        -2.4517676509       -0.0471297282      -11.9465634307
 O        -2.9250161465       -0.5598224811      -12.9097801167
 C        -3.4945579789        0.8179175422      -11.0250084803
 C        -4.4789842990       -0.2933599937      -10.2312538517
 O        -4.7416850967       -0.1200762884       -9.0684916304
 C        -5.1864751080       -1.2647723520      -11.0425298887
 C        -4.3255789503       -2.6296022713      -11.1421615068
 C        -4.2962672642       -3.3602341585       -9.7126241149
 O        -5.2641797510       -3.3053797608       -9.0013373729
 C        -3.0807373109       -4.1226690731       -9.2889421615
 C        -2.0406170984       -3.1681074483       -8.5730338467
 O        -1.1188112944       -2.7325949005       -9.2104477189
 C        -2.4125252202       -2.6697334434       -7.2210613551
 C        -1.8866209567       -1.2979947353       -6.8507684802
 C        -1.5928468951       -1.1816548827       -5.2776587985
 O        -1.6008022039       -2.1810379098       -4.6124547487
 C        -1.4794505514        0.1216001218       -4.4015101565
 C        -2.9381916713        0.7871431110       -4.1084400658
 O        -3.0635650667        1.9398236167       -4.4350439110
 C        -4.0293219555        0.0528670658       -3.2833433420
 C        -5.4283571566        0.6993414891       -3.5673770379
 C        -6.0852651955        0.4449752913       -4.9442477364
 O        -5.7854822309       -0.4636815118       -5.7217183079
 C        -7.4335225028        1.2878777730       -5.2649980270
 C        -7.6750182402        1.2885723733       -6.8777810255
 O        -6.7905952446        0.9935197287       -7.6470302226
 C        -9.0251800746        1.8381229024       -7.4550715240
 C        -9.3482640248        1.2929026847       -8.8821604078
 C       -10.5917911409        0.3760419657       -8.8163784525
 O       -11.5090151312        0.5156703292       -8.0620039054
 C       -10.5832342075       -0.9208714360       -9.8130658964
 C        -9.4842365765       -1.7210333486       -9.0036769031
 O        -8.3514278831       -1.4906268941       -9.3070631005
 C        -9.8694994979       -2.5897917415       -7.8475586513
 C        -9.0017608037       -3.8981779020       -7.7931975703
 C        -8.1040215046       -4.0711396207       -6.5969279020
 O        -7.4961921054       -3.0721079063       -6.2518863152
 C        -7.9541403691       -5.5526679015       -6.1077408687
 C        -9.2844664724       -5.9153228400       -5.3387723258
 O       -10.2859961457       -6.0837487079       -6.0090327034
 C        -9.2321137423       -5.9288176188       -3.7747358883
 C       -10.5617170834       -5.4939559281       -3.2226144668
 C       -11.0040455428       -4.0846011715       -3.5727443306
 O       -10.3712808169       -3.3953924021       -4.3751463182
 C       -12.2819698819       -3.5448585953       -2.7341897734
 C       -11.6920254429       -3.5654701718       -1.1539520258
 O       -11.8167790946       -4.6103341442       -0.5656846543
 C       -10.8715608570       -2.3686195480       -0.7617072702
 C       -11.6185982454       -1.2103115333       -0.1096360372
 C       -10.6700613855        0.0133368843        0.2951780403
 O        -9.5014412240        0.0068392659       -0.0185838653
 C       -11.1576735869        1.2632082760        1.1403114367
 C       -11.9349257955        0.7964232407        2.4307915296
 O       -12.5459175402       -0.2317764453        2.5026520022
 C       -12.0204234083        1.8735397685        3.4150674828
 C        -9.8505303062        2.0247466686        1.5123964086
 C       -11.9504795203        2.1781725616        0.2338370491
 C       -12.7495947252       -2.1722338513       -3.2522212482
 C       -13.4037729134       -4.5303830734       -2.9213512013
 C        -8.0621885630       -6.4755531253       -7.3142717716
 C        -6.6879507970       -5.7590389376       -5.3355103102
 C       -11.9439415911       -1.7653954523      -10.0347463744
 C        -9.9680934782       -0.5267031170      -11.1744835000
 C        -8.6534378711        0.4420951900       -4.5904894502
 C        -7.3789135193        2.6608408309       -4.6536758100
 C        -0.8711940863       -0.2698660392       -2.9815506931
 C        -0.6704256726        1.1825905072       -5.0645727273
 C        -3.5520754631       -5.2044954689       -8.3330338600
 C        -2.3516729137       -4.7230524372      -10.5397157941
 C        -2.6829231090        1.7189553658       -9.9580909547
 C        -4.5011640379        1.6661469407      -11.8715003589
 C         1.4647730651       -3.1800587904      -13.8882274348
 C         3.2543873648       -1.8261200041      -12.6623334373
 C         5.3703000751        2.6200981786      -17.3562809802
 C         4.5930907471        1.9973863975      -19.6034469027
 C         8.9813128260       -1.8364542934      -22.2039611263
 C         7.0269658113       -0.8123481646      -23.6113007208
 C         5.5726148754       -4.7910309116      -18.2419219017
 C         4.6925020099       -6.4528978535      -19.7668115140
 H         0.8726298599       -5.9063555482      -18.5291457364
 H         2.0362529407       -6.9167066862      -17.7136005801
 H         1.9634730440       -6.6990525923      -19.4546310243
 H         3.6928939411       -4.6873543480      -22.4153905085
 H         5.3767070807       -5.2913824360      -21.9177855507
 H         4.7834905877       -2.2638108362      -22.6583142938
 H         5.5401149464       -3.3909283277      -23.7146189403
 H         8.8324548743       -0.5064774162      -19.9112509903
 H         7.4671972271       -1.5832305555      -19.3875249704
 H         7.4877006921        1.4444895339      -19.0852038200
 H         7.8388994533        0.2917414675      -17.7377424636
 H         2.9474077482        2.0063355414      -15.9523428192
 H         4.1749500583        0.8184427918      -15.6809503750
 H         1.2324550080        0.0089263410      -16.2228599094
 H         1.5510594068        0.6970482931      -14.5927884233
 H        -0.0118808809       -2.2794867020      -11.8017379179
 H        -0.9814561105       -1.5351306122      -13.0505907945
 H        -0.5611889100        0.3692938723      -11.0220167962
 H        -1.2492956389       -0.9033828607      -10.3789327123
 H        -5.3274966107       -0.8971611052      -12.0441788591
 H        -6.1028540500       -1.5466307105      -10.5606217289
 H        -3.3400885146       -2.4750465352      -11.4667300730
 H        -4.8323119248       -3.2926627103      -11.8147331995
 H        -2.1289428717       -3.3040714045       -6.3718292464
 H        -3.5368150033       -2.6613718138       -7.1003890106
 H        -2.6061473198       -0.5398822356       -7.1766142418
 H        -0.9846120297       -1.2081689908       -7.3961481683
 H        -3.8883275756        0.1871432915       -2.1828393002
 H        -4.1398093685       -1.0026872235       -3.5257008126
 H        -5.5246206087        1.7687437557       -3.2919807382
 H        -6.2157901157        0.2494261554       -2.8989850404
 H        -9.0477490893        2.9707978822       -7.5150973455
 H        -9.8816551192        1.7772200114       -6.7533661875
 H        -8.4161052600        0.8825384080       -9.3057904200
 H        -9.8271369091        2.1416405016       -9.4557318799
 H       -10.8536230667       -2.9758073153       -7.9809896258
 H        -9.7263351011       -2.2002157695       -6.8094110907
 H        -8.2631032450       -3.8016743461       -8.6272504073
 H        -9.6282387351       -4.8389929847       -7.8758119139
 H        -8.3038484098       -5.3695611276       -3.5368829958
 H        -8.9912567162       -6.9276303308       -3.3850876528
 H       -10.7898264955       -5.6913515036       -2.1752413643
 H       -11.3718841416       -6.1936036714       -3.6535035868
 H       -10.4773484543       -1.9589897675       -1.6828034846
 H       -10.0666034643       -2.7641825581       -0.1842783928
 H       -12.1487355025       -1.3560935928        0.8736585229
 H       -12.3904433655       -0.9274489400       -0.8564014050
 H       -13.0963907688        2.0139684968        3.5209820747
 H       -11.6163959898        2.7837607999        3.0745933706
 H       -11.4932537774        1.8080794829        4.3018284534
 H       -10.0509532611        2.9130764457        1.9969851163
 H        -9.3570951440        2.2831496872        0.5823758728
 H        -9.1448409272        1.4489667786        2.0509391318
 H       -11.4163332289        2.5846806633       -0.6542029081
 H       -12.2827062148        3.0340996673        0.7810121243
 H       -12.8476576048        1.7198609978       -0.1465609084
 H       -12.8605050337       -2.4493643409       -4.2749843771
 H       -12.0056918350       -1.2891324521       -3.1722629350
 H       -13.6971742660       -1.8420833513       -2.7554549590
 H       -14.3872478578       -4.1912364623       -2.4084261657
 H       -13.1046885926       -5.6146288901       -2.7834899853
 H       -13.6630455284       -4.5155240490       -4.0144546209
 H        -7.6573035592       -5.9546541421       -8.1493333802
 H        -9.1354217810       -6.7373141578       -7.5043493295
 H        -7.5840461877       -7.4139486051       -7.2042556243
 H        -6.2566087294       -4.7799522290       -5.1133416554
 H        -5.9848166909       -6.3873102145       -5.8092769983
 H        -6.8343205081       -6.2436420401       -4.3865523058
 H       -11.7512587266       -2.8243544658      -10.4400798387
 H       -12.6238260318       -1.2522214368      -10.6855172974
 H       -12.3493894953       -1.7189088523       -9.0564616932
 H        -8.8278316599       -0.5982357988      -11.2165440674
 H       -10.2679451737        0.4378313165      -11.5154766943
 H       -10.3229889643       -1.2860158038      -11.8072712622
 H        -9.4987389954        1.0652913264       -4.7399659998
 H        -8.5035818038        0.1505090053       -3.6130508467
 H        -8.7410821970       -0.5044567047       -5.1765500137
 H        -8.3107290646        3.0625771202       -4.7058118278
 H        -6.7025292186        3.3782540613       -5.0702970791
 H        -7.1237772022        2.4586005294       -3.6607838465
 H         0.0893246064       -0.8324285546       -3.1360603146
 H        -1.6532077520       -0.9417248310       -2.5223595819
 H        -0.7233476535        0.6533359159       -2.4402996374
 H        -1.0140105949        1.2103664385       -6.1123004247
 H         0.3365810932        0.9475663837       -5.1590175497
 H        -0.8467526768        2.1679271781       -4.5993576346
 H        -2.8601731493       -5.4236990411       -7.5638580082
 H        -3.9245893512       -6.0989916561       -8.8146384380
 H        -4.2956209703       -4.6845947409       -7.7209354373
 H        -2.8515256106       -5.5826166086      -11.0499809698
 H        -1.3589249309       -4.9929995254      -10.1116379699
 H        -2.2205180438       -4.0397500728      -11.3948828978
 H        -2.1201157834        2.4941434986      -10.4153130718
 H        -2.0864829485        1.1391004355       -9.2977041418
 H        -3.4501161446        2.0678978104       -9.2507105220
 H        -4.2008836815        1.6949125886      -12.9436660352
 H        -4.4247999161        2.6924785013      -11.7026558842
 H        -5.5877641806        1.4602197174      -11.7391388028
 H         0.4647638020       -3.1606010678      -14.3696803837
 H         1.4415565300       -3.7160457240      -12.9058220385
 H         1.9754154210       -3.8813650737      -14.5730522885
 H         4.1661842834       -2.2610725671      -13.1027121752
 H         2.9699556519       -2.2342818881      -11.6484881192
 H         3.6868132731       -0.8115798820      -12.5279916727
 H         4.7716567631        3.5198446599      -17.5427640690
 H         6.2220994152        2.9488537504      -17.8103879910
 H         5.4489063341        2.4099732225      -16.2994871356
 H         5.4102174872        2.4568794432      -20.1548432249
 H         3.6662092875        2.6768485899      -19.7343152767
 H         4.1835572259        1.2865388707      -20.2312619883
 H         9.3105452653       -2.6943317204      -22.9296582935
 H         9.0692371203       -2.1219073562      -21.2015007374
 H         9.6449171380       -0.9722031208      -22.4372907979
 H         7.1326079575        0.2188915481      -23.3364139100
 H         5.9572406298       -1.1093109414      -23.8571743625
 H         7.6882355004       -1.1080396548      -24.3935930145
 H         5.2698035267       -4.4304539583      -17.2626608985
 H         6.2035629785       -3.9923121211      -18.7167292611
 H         6.1433556248       -5.7540126721      -17.9262018148
 H         3.9751788779       -6.7108623975      -20.5829712003
 H         4.6658241573       -7.2602627850      -18.9644645831
 H         5.6406277178       -6.4094174580      -20.3281993308
 Na        3.3833832312       -1.9059496025      -18.1263014392
 Na       -6.2245483385       -1.3711713777       -8.0614676798
