232

 C         1.9105187608       -6.2108222221      -18.6572898245
 C         2.9575069171       -5.0671117922      -18.5873029477
 O         2.4725048144       -3.9968203009      -18.1168016817
 C         4.4338996773       -5.1612864472      -19.2502592238
 C         4.4935115366       -3.9109694470      -20.3374264292
 O         4.2980247983       -2.7487133351      -20.0602371530
 C         4.5892591841       -4.1724297255      -21.8103959876
 C         5.2402167692       -3.0209391324      -22.5120961817
 C         6.7098405214       -2.8763932283      -22.0154431111
 O         7.2393512114       -3.6761232527      -21.2637865094
 C         7.4344139252       -1.4426524209      -22.2500327073
 C         6.8112255306       -0.5556152109      -21.0937453828
 O         5.9530391366        0.2874401306      -21.3285799131
 C         7.6634923358       -0.4614152804      -19.8651386010
 C         7.1568211982        0.6390112771      -18.8513109159
 C         5.7879606682        0.2479627693      -18.2694667334
 O         5.4920666507       -0.8664827916      -17.9292867383
 C         4.7704453303        1.4172031952      -18.2425999013
 C         3.4580212082        0.8208649172      -17.7074631222
 O         2.6377566538        0.2843727737      -18.4323501010
 C         3.2430488174        0.8801753662      -16.1535401975
 C         2.0493866034        0.0445017854      -15.6037210302
 C         2.4451464999       -1.3550204537      -15.0350761788
 O         3.2381407644       -2.0768231902      -15.6681025695
 C         1.9327472719       -1.7840682078      -13.5986133183
 C         0.8966142920       -0.8324624228      -12.8486299184
 O         1.0226753046        0.3911220624      -12.7685041818
 C        -0.3988067928       -1.4650951507      -12.2867309747
 C        -1.2093296550       -0.5632236889      -11.3621156876
 C        -2.5795492942       -0.2344893181      -11.8527837282
 O        -2.9158626947       -0.6915191174      -12.8998068267
 C        -3.5030704759        0.7829747530      -10.9702176583
 C        -4.4591942927       -0.1729422190      -10.2449222655
 O        -4.6015464848       -0.0717986388       -8.9849528996
 C        -5.2286574090       -1.2064000895      -11.0812825062
 C        -4.4690259260       -2.6303483902      -11.1609278077
 C        -4.3394322115       -3.3234541353       -9.7990185040
 O        -5.2480163949       -3.2173374547       -8.9985747544
 C        -3.0660718977       -4.0774250356       -9.3543899066
 C        -2.0559539593       -2.9920558596       -8.6566547551
 O        -1.0100446862       -2.7790958158       -9.2066178326
 C        -2.3136349947       -2.5315116404       -7.2209619442
 C        -1.7185075998       -1.1443102463       -6.7696366441
 C        -1.6445744639       -1.1310818061       -5.2298083022
 O        -1.5612254145       -2.2615963362       -4.7449924470
 C        -1.4734354525        0.1731297436       -4.3622786315
 C        -2.8976360589        0.8559431052       -4.1223301043
 O        -3.0790230997        1.9159775598       -4.5815248682
 C        -4.0012888516        0.1562363277       -3.3190501463
 C        -5.4421527985        0.6912547249       -3.6319134680
 C        -6.1773573080        0.3677800727       -4.9499780270
 O        -5.7933832948       -0.5398743657       -5.6650210717
 C        -7.4820415086        1.2828226643       -5.3176687247
 C        -7.7515161965        1.2845477871       -6.8564317861
 O        -6.9561374583        0.8262204990       -7.6549783930
 C        -9.0846764740        1.8106580304       -7.3009791864
 C        -9.4733047709        1.3848476388       -8.7644872734
 C       -10.6171261415        0.4185286766       -8.7800464434
 O       -11.6130756077        0.5649637407       -8.1473113528
 C       -10.4880718537       -0.9359637236       -9.7501730580
 C        -9.4225031161       -1.7450135092       -9.0485548196
 O        -8.2245089323       -1.5105267890       -9.2908839317
 C        -9.6952463184       -2.5355391331       -7.8197062402
 C        -8.9942511147       -3.9062681387       -7.9213957899
 C        -8.0205298079       -4.1456906622       -6.6799557391
 O        -7.3845574043       -3.2792298668       -6.1073490314
 C        -7.8954729583       -5.5690644270       -6.1727362374
 C        -9.2264934474       -5.7787932873       -5.2842578534
 O       -10.2822724844       -5.8735497981       -5.8575975619
 C        -9.2919662747       -5.8727500782       -3.7781341797
 C       -10.7029245924       -5.6359699887       -3.2545463003
 C       -10.9928562905       -4.1171128946       -3.5209540011
 O       -10.4307823266       -3.4700528867       -4.3777108279
 C       -12.2454073110       -3.5599262358       -2.7452577028
 C       -11.6751222432       -3.4680240645       -1.2454058488
 O       -11.7726182881       -4.4587672216       -0.5420098262
 C       -10.9098531396       -2.2115304898       -0.8092814040
 C       -11.6331682789       -1.1180691329       -0.0156483426
 C       -10.6188733832       -0.0670338773        0.3113662962
 O        -9.4702551177       -0.0633073524       -0.1486458668
 C       -11.1022783945        1.1727707787        1.1313609804
 C       -12.0408742652        0.8499856834        2.4051693445
 O       -12.5538882860       -0.2419666031        2.4481433234
 C       -12.1303366591        1.8454025015        3.5319275237
 C        -9.7888585757        1.9772036723        1.5310740706
 C       -12.0287232866        2.0433423592        0.2553274040
 C       -12.7077778977       -2.1760130194       -3.1376811998
 C       -13.3528819441       -4.5985171385       -2.8189963384
 C        -7.9463938140       -6.4801038703       -7.5055672440
 C        -6.5845124594       -5.8160069368       -5.3459885463
 C       -11.8785426895       -1.5710298355       -9.7844938633
 C        -9.9967325031       -0.3681683132      -11.1505389601
 C        -8.6367021294        0.4865805451       -4.7000434644
 C        -7.4595585392        2.7370381198       -4.7604622867
 C        -0.8397992252       -0.2992505408       -2.9753135261
 C        -0.5521983335        1.3093263780       -5.0448248839
 C        -3.4841316642       -5.2747963550       -8.3363751370
 C        -2.2360303990       -4.8144124180      -10.4713192513
 C        -2.7913054850        1.6894825281       -9.9574639630
 C        -4.3385597693        1.6221825346      -11.8775165950
 C         1.5479730486       -3.2758930969      -13.6758989890
 C         3.2294017054       -1.7806480816      -12.8077999951
 C         5.3401553407        2.5971524267      -17.3372939799
 C         4.6396037642        1.9109079317      -19.7001281252
 C         8.9918322981       -1.7335049249      -22.1610187570
 C         6.9597008013       -0.8027962577      -23.6255288681
 C         5.5289293094       -4.7601084417      -18.1812475375
 C         4.8439415624       -6.5992598722      -19.8846856398
 H         1.0234484677       -6.0181572011      -18.1837291064
 H         2.3177048751       -7.1161505127      -18.1472289340
 H         1.5646878039       -6.4742038559      -19.6373387515
 H         3.5031571853       -4.1107535629      -22.1427451379
 H         5.0053021809       -5.0775214735      -22.3086234886
 H         4.7541201598       -1.9901999213      -22.4888644437
 H         5.1962722192       -3.2700270049      -23.5362544177
 H         8.6739452232       -0.2722205521      -20.2038271107
 H         7.5294707893       -1.4530699131      -19.3522182881
 H         6.9847983224        1.5651345236      -19.4418249632
 H         7.8645543749        0.8180065770      -18.0518437566
 H         2.9374041909        1.9115746919      -15.9294475914
 H         4.2071157200        0.7193614896      -15.6285512601
 H         1.2295409910       -0.0243851793      -16.2945570391
 H         1.6411744618        0.5268809762      -14.7036707073
 H        -0.1652279386       -2.3598524803      -11.6984957880
 H        -0.9884889258       -1.7017984409      -13.1447404307
 H        -0.7482828645        0.4114001103      -11.1411898508
 H        -1.2586915061       -0.9351703828      -10.3351770282
 H        -5.4718544114       -0.9275910196      -12.0647274425
 H        -6.1160323492       -1.4212501281      -10.5606693638
 H        -3.4451019581       -2.5416005222      -11.5112381981
 H        -4.9493109135       -3.3141520854      -11.8320835688
 H        -1.8347533891       -3.2654068407       -6.5640439717
 H        -3.3408814813       -2.5652147534       -6.8159937594
 H        -2.3550429868       -0.4181482838       -7.1276087666
 H        -0.7120375114       -1.0542846745       -7.1789469213
 H        -3.9107654071        0.3911668187       -2.2937498636
 H        -4.0094058723       -0.9700647969       -3.4694062054
 H        -5.4152847161        1.8292218998       -3.7384545928
 H        -6.1140833013        0.5914906341       -2.7959656489
 H        -9.1002415870        2.9586328715       -7.2372282336
 H        -9.8560957166        1.6774095598       -6.6036820169
 H        -8.5690043402        0.8616753450       -9.1220075193
 H        -9.7736020598        2.2464605699       -9.3728652076
 H       -10.6958645035       -2.6888954928       -7.5361970870
 H        -9.1255791190       -2.0928144923       -6.9628500672
 H        -8.3922599096       -3.8022410046       -8.7711507961
 H        -9.6481245125       -4.7563730490       -7.9320091262
 H        -8.4187769744       -5.2976941593       -3.3807313991
 H        -8.9377025823       -6.9144077492       -3.5895187555
 H       -10.9478814893       -5.9146217273       -2.2212624021
 H       -11.4493775648       -6.2489209651       -3.7711136917
 H       -10.3247347101       -1.7662126532       -1.6379673720
 H       -10.2261680664       -2.6568138113       -0.0943396689
 H       -11.9658168951       -1.4865849313        0.9625148475
 H       -12.5019554053       -0.6996000336       -0.5039143838
 H       -13.1974428689        2.0382035716        3.6004748558
 H       -11.5809043780        2.7941635192        3.5076301725
 H       -11.6866766940        1.4612813368        4.4662313216
 H       -10.0737052408        2.8445405723        2.1664886365
 H        -9.2610313745        2.3687742379        0.6070880062
 H        -8.9577130435        1.4101331281        1.9830763332
 H       -11.6180432905        2.3959497801       -0.7355138406
 H       -12.2971471439        2.9244411323        0.7869814953
 H       -12.9957713548        1.5968927911        0.0267345932
 H       -13.1397107728       -2.2725407092       -4.2087280029
 H       -12.0580168747       -1.2657056360       -2.9117937404
 H       -13.5481298083       -2.0718956949       -2.4357704173
 H       -14.1069741177       -4.1998009119       -2.1807450795
 H       -13.0133137871       -5.5727399580       -2.4775637324
 H       -13.8591824935       -4.7584638399       -3.8040924278
 H        -7.3381087988       -5.9429650273       -8.2467803000
 H        -8.9711360762       -6.6800634967       -7.8792301493
 H        -7.5899435974       -7.4471833882       -7.3196944239
 H        -6.0172291901       -4.9287637643       -5.3014750987
 H        -5.9781416574       -6.6045378206       -5.8152365796
 H        -6.7220305374       -6.2149835290       -4.3152884474
 H       -11.8777383324       -2.4694719219      -10.4395734417
 H       -12.5740032681       -0.7885276947      -10.2143180880
 H       -12.2040811637       -1.6665817178       -8.7158718269
 H        -9.0481017451        0.0095539539      -11.0656064648
 H       -10.6808791125        0.4439587359      -11.4476766139
 H        -9.9905555122       -1.1655868880      -11.9406375461
 H        -9.4644894023        1.2479781777       -4.8735072557
 H        -8.3987890927        0.4717806037       -3.5841506200
 H        -8.8174409587       -0.4710995495       -5.0400605093
 H        -8.3899387336        3.2825782212       -5.0370623957
 H        -6.6934557550        3.2165410689       -5.2649585116
 H        -7.2592134085        2.7727374695       -3.6771225656
 H         0.1816120054       -0.2066472716       -3.0746880657
 H        -1.1176662565       -1.2710619980       -2.8463421164
 H        -1.1940312932        0.4282847462       -2.1145304943
 H        -0.9581170458        1.4717932610       -6.0649841651
 H         0.4253439369        0.9216728543       -5.2259778190
 H        -0.5508024619        2.2193111915       -4.5469612311
 H        -2.7244195433       -5.6598162412       -7.6902293961
 H        -3.8962983292       -6.0843289607       -8.8813716643
 H        -4.1785236970       -4.7796867692       -7.5956154238
 H        -2.7529696449       -5.6357581585      -10.8207533005
 H        -1.2230772654       -5.0687883206      -10.0846602700
 H        -2.1643269312       -4.2534344540      -11.3461810792
 H        -2.7686544117        2.7486550769      -10.3510359283
 H        -1.7796312554        1.3727817283       -9.7393880911
 H        -3.3187425554        1.6216494079       -9.0795700094
 H        -3.8574808572        1.9328370466      -12.7992243403
 H        -4.4579814197        2.6663664680      -11.4700720243
 H        -5.3583729777        1.2689644904      -12.0508730706
 H         0.6876431862       -3.3646677129      -14.3331301517
 H         1.4186969085       -3.7585162364      -12.6761406048
 H         2.2291563980       -3.9688613948      -14.2534434730
 H         4.0186589175       -2.4656494809      -13.1518038378
 H         3.0154617320       -1.9368870230      -11.7655383928
 H         3.7752564322       -0.8182058792      -12.9309794050
 H         4.6821687408        3.4256870352      -17.4817327199
 H         6.3100019567        3.0776636959      -17.5707905897
 H         5.1737800224        2.2504719292      -16.3832166478
 H         5.5795606944        2.2465714923      -20.0598587325
 H         3.9223153039        2.7551218452      -19.8159848573
 H         4.1541650852        1.3442762947      -20.4769599309
 H         9.1480871693       -2.5271297383      -22.8246694507
 H         9.2789266705       -1.9927358579      -21.1686919537
 H         9.5867262912       -0.9271434481      -22.5109132604
 H         7.2528345654        0.2764743757      -23.4609072156
 H         5.8258454952       -0.9938147957      -23.6907493033
 H         7.4754745745       -1.2294805978      -24.4391837083
 H         5.2046663707       -4.3006554668      -17.1945145767
 H         6.2581587230       -4.0401110115      -18.6581986754
 H         5.9873868185       -5.7054077523      -17.7905581801
 H         3.9650936719       -7.1442507898      -20.3569453484
 H         5.1994803961       -7.2282372884      -19.0117382577
 H         5.5629814935       -6.5299802330      -20.7124529400
 Na        3.3302397705       -1.8767045732      -18.1478150691
 Na       -6.3258227222       -1.5565892144       -7.9761388387
