232

 C         2.0854818278       -6.5095631865      -19.0515984086
 C         2.8478267812       -5.2252996775      -18.8587217801
 O         2.3152981421       -4.3372831837      -18.1942830318
 C         4.4520736809       -4.9760266469      -19.3227449690
 C         4.4847810004       -3.7622751305      -20.3659758460
 O         4.3738167245       -2.6272905697      -19.8550284064
 C         4.6037474993       -3.8861387232      -21.8665343748
 C         5.2375732899       -2.7345710019      -22.5752587246
 C         6.7180181291       -2.7707447618      -22.2866107147
 O         7.2900194484       -3.7872868670      -21.9216478715
 C         7.4340279897       -1.3857110123      -22.3339488497
 C         6.9553427133       -0.3957666964      -21.2108234518
 O         5.8985606690        0.1770371571      -21.3392959806
 C         7.7712826853       -0.2963945398      -19.8871074226
 C         7.1287246022        0.8452689837      -18.8965704034
 C         5.6867056909        0.4857816013      -18.3990617649
 O         5.5538089055       -0.5828166835      -17.8903014297
 C         4.5584337341        1.4964631601      -18.2138022420
 C         3.3163760313        0.7182386444      -17.5659502400
 O         2.5810567889        0.1048380527      -18.3262580036
 C         3.0989028930        0.5560085361      -16.0694539643
 C         1.8147600313       -0.1864870745      -15.6381701392
 C         2.2206018035       -1.5850573706      -15.0621669869
 O         2.9260546936       -2.4089055980      -15.6279595469
 C         1.9690022441       -1.9380916849      -13.5689033517
 C         0.7259809360       -1.0037691283      -13.0466780734
 O         0.9133482528        0.2033898675      -13.0383514262
 C        -0.4305791590       -1.5803320891      -12.2862168093
 C        -1.1142561656       -0.5582743366      -11.4426569807
 C        -2.5585080263       -0.3670421500      -11.9025351204
 O        -3.0028351687       -0.8203881341      -12.9144183845
 C        -3.4678200688        0.6086209881      -11.0352640654
 C        -4.4268357530       -0.3947523498      -10.2692680777
 O        -4.4120588604       -0.3996088765       -9.0239757669
 C        -5.2913482217       -1.3655755681      -11.0790626763
 C        -4.5551767166       -2.8023174814      -10.9123444627
 C        -4.2767630296       -3.2450536648       -9.4929813000
 O        -5.1198867602       -3.2243441933       -8.6540239808
 C        -2.9147626219       -3.9631686104       -9.2960963162
 C        -1.9682164019       -2.8343069437       -8.6592749448
 O        -0.9400859289       -2.5174385108       -9.1533219497
 C        -2.4842247505       -2.1648123980       -7.3642114577
 C        -1.5775544867       -1.0957323527       -6.7787759145
 C        -1.5836815694       -1.1771409823       -5.2330904796
 O        -1.6544040210       -2.2241880015       -4.6051427895
 C        -1.4470415352        0.1843211110       -4.4508132001
 C        -2.8585031412        0.8905686083       -4.5284400539
 O        -3.0328735411        1.8401175447       -5.1919507553
 C        -3.9213429749        0.1000947201       -3.8012487945
 C        -5.2449157954        0.8892553797       -3.8756044101
 C        -6.1821795521        0.3762826625       -4.9815504923
 O        -5.8563974381       -0.6514353295       -5.5868065111
 C        -7.5349466459        1.0801365704       -5.2313017257
 C        -7.9719367966        1.1356281593       -6.8363609100
 O        -7.5433995458        0.3353798252       -7.6308418254
 C        -9.0692445078        2.0901804989       -7.2487257816
 C        -9.7210385650        1.8743646478       -8.6628986989
 C       -10.7153496766        0.7375490835       -8.6992888394
 O       -11.6912876122        0.8518123490       -8.0056960252
 C       -10.4969317264       -0.6237931415       -9.5723998343
 C        -9.2317991616       -1.4392336181       -8.9240856682
 O        -8.2155102863       -1.4137288339       -9.5532677969
 C        -9.2423789226       -2.2372374556       -7.6295162306
 C        -8.8357428380       -3.7683504839       -7.8797163355
 C        -7.7516220383       -4.2686384949       -6.8774363116
 O        -6.9161709092       -3.5338506964       -6.3676193587
 C        -7.8518423253       -5.7174327209       -6.2326180936
 C        -9.2176345282       -5.7011482907       -5.5404388124
 O       -10.1538183195       -5.8110949999       -6.3165178681
 C        -9.2304687758       -5.8005386998       -4.0091580799
 C       -10.5197181504       -5.6348299082       -3.2919382952
 C       -11.1505039432       -4.1808099467       -3.5003948728
 O       -10.4976406271       -3.3809784859       -4.1736845124
 C       -12.2740480537       -3.6398425917       -2.5545826982
 C       -11.6156281134       -3.4193018734       -1.1819329429
 O       -11.7538882343       -4.2584899749       -0.3256730084
 C       -10.7233151504       -2.1709806399       -0.9533322626
 C       -11.3507025158       -1.2138664699        0.0309795123
 C       -10.5411652193       -0.0469625707        0.3843579221
 O        -9.4206335185        0.1312990308       -0.1060938240
 C       -11.1629352496        1.1328615887        1.2100478354
 C       -12.1017079899        0.6693724585        2.4231286253
 O       -12.6328200310       -0.3947510241        2.4307570430
 C       -12.1210170360        1.6492885248        3.6091994784
 C        -9.9845066753        2.0523798355        1.6691893686
 C       -12.0631734638        2.0472159308        0.2720494552
 C       -12.8125139505       -2.4222006104       -3.3077832579
 C       -13.5754830742       -4.5763185113       -2.3672365734
 C        -7.9317516061       -6.8804097654       -7.3029289953
 C        -6.5870138633       -5.9032139859       -5.2814890862
 C       -11.6624494363       -1.7404405923       -9.5204442994
 C       -10.1233151485       -0.2280497281      -11.0062308907
 C        -8.5789527283        0.4154669050       -4.2521520422
 C        -7.3582488962        2.6536521637       -4.8674650695
 C        -1.1182715001       -0.0223882121       -2.9706722228
 C        -0.4034895223        1.1078498136       -5.1854110044
 C        -3.1482248903       -5.0675555717       -8.1443681111
 C        -2.3544540233       -4.5214031645      -10.6015443641
 C        -2.6892961958        1.5382631023      -10.0165517257
 C        -4.2719187761        1.5685973848      -11.8809174349
 C         1.8107080860       -3.4745624037      -13.5641236217
 C         3.1164230647       -1.5382233968      -12.6597120250
 C         5.1192373720        2.6779326228      -17.3210207062
 C         3.9848404709        2.1835517432      -19.4563720771
 C         8.9994146936       -1.5956478002      -22.3431328495
 C         7.0272799923       -0.8047214114      -23.7665323827
 C         5.3536581270       -4.7412255774      -18.0232854669
 C         5.0456738612       -6.2335648182      -20.0160418946
 H         1.3142600022       -6.5290104926      -18.2969154015
 H         2.5982149806       -7.5246668571      -19.1999140741
 H         1.4178318723       -6.3504912148      -19.9536782686
 H         3.6026648362       -4.0791728232      -22.2642168144
 H         5.0672813402       -4.8664297604      -22.1391065753
 H         4.7862071439       -1.8134261089      -22.2241185328
 H         5.0732452753       -2.6334433533      -23.6342326423
 H         8.8297545962       -0.1027291056      -20.0317766465
 H         7.5662773196       -1.2490965771      -19.4232116372
 H         7.1133091571        1.7717334355      -19.4821875625
 H         7.8196183265        0.8967241800      -18.0339987613
 H         2.8847180412        1.6020122756      -15.8116631919
 H         4.0426470500        0.2468525580      -15.6374810284
 H         1.1471258538       -0.4580982643      -16.5107447803
 H         1.1569166403        0.2080082177      -14.8319825255
 H        -0.0406688808       -2.4385222695      -11.6948446150
 H        -1.1286171443       -1.9382231274      -13.0673023266
 H        -0.6387522128        0.3861565091      -11.5769244401
 H        -1.0022616341       -0.6280260617      -10.3686205520
 H        -5.2276841825       -1.1476273532      -12.1763371421
 H        -6.3798272713       -1.3872154989      -10.8501675417
 H        -3.5830649081       -2.7235589891      -11.3749644149
 H        -4.9809817378       -3.6931693356      -11.4003244332
 H        -2.5860927118       -2.9029790430       -6.5683904609
 H        -3.5462540990       -1.8059237755       -7.3076758643
 H        -1.9055395409       -0.0985786060       -7.1470580870
 H        -0.5402450160       -1.3499756114       -7.0770197699
 H        -3.7853507538       -0.1824188480       -2.7564875841
 H        -4.0814970181       -0.7716934930       -4.4649204174
 H        -5.0770338495        1.9496710178       -4.1102295648
 H        -5.9243967613        0.9195837693       -3.0115796751
 H        -8.8366316697        3.2103470957       -7.1700821307
 H        -9.9084804483        2.0673047980       -6.5641724839
 H        -8.9423478369        1.7334897459       -9.4254358941
 H       -10.2703633009        2.8324301109       -8.9071632674
 H       -10.1626091870       -2.3516185315       -7.1158988479
 H        -8.6106009891       -1.6154959583       -6.9115754556
 H        -8.3718421114       -3.6971154121       -8.9185117338
 H        -9.8026468149       -4.4033147171       -7.7651409464
 H        -8.4285627797       -5.1701374661       -3.6181863890
 H        -8.8467191679       -6.7933731502       -3.9073057314
 H       -10.4555844786       -5.9794321871       -2.2591762698
 H       -11.3795775548       -6.2845203706       -3.6647136681
 H       -10.6624155822       -1.7317999791       -1.9505395187
 H        -9.7308258898       -2.4245081528       -0.6498362948
 H       -11.5486584838       -1.9117330546        0.9067066554
 H       -12.3202914787       -0.8185943488       -0.3740120859
 H       -13.1004768287        2.1185888534        3.6306417076
 H       -11.4585751093        2.4569843354        3.3747404491
 H       -11.7556503793        1.4387904895        4.5692594287
 H       -10.2266331641        3.0083148701        1.9754028395
 H        -9.2687851194        2.0503364020        0.8750419880
 H        -9.3817022151        1.6026418587        2.3665484606
 H       -11.5318744864        2.4373887259       -0.6474304301
 H       -12.4171546979        2.9024012778        0.7693033420
 H       -12.9966878909        1.6333321794       -0.0449917032
 H       -13.6768128164       -2.7959751605       -3.8304815683
 H       -11.9500659154       -1.9434688214       -3.7889047702
 H       -13.2800009248       -1.7294959852       -2.7076823729
 H       -14.4765101478       -4.0035213130       -2.1401151242
 H       -13.3205404746       -5.3325394311       -1.6001596648
 H       -13.8016112633       -5.2100384650       -3.2800352636
 H        -6.9454784331       -6.9626054449       -7.7171322152
 H        -8.6841824246       -6.6560323853       -8.1350312506
 H        -8.2621054446       -7.7697181104       -6.8636888108
 H        -5.9261683854       -5.0495689285       -5.2078904115
 H        -5.9735775009       -6.6869262826       -5.7089383136
 H        -6.8860315417       -6.3013464835       -4.3039435256
 H       -11.3074562683       -2.5494205283      -10.1488146059
 H       -12.5695922243       -1.3716250049       -9.8550106028
 H       -11.7998536441       -1.9481429872       -8.5242674734
 H        -9.3664522250        0.5412081793      -11.0595501766
 H       -11.0160469708        0.0891189920      -11.5752970523
 H        -9.7751970895       -1.1551301417      -11.4910295702
 H        -9.5416704319        0.9156329720       -4.3588862406
 H        -8.1974819061        0.5168448453       -3.2656911702
 H        -8.6461744902       -0.5524267385       -4.5486242169
 H        -8.2703655703        3.2539664701       -4.8218101033
 H        -6.6782397570        3.0688596214       -5.5421053951
 H        -6.9735749408        2.7086401703       -3.8332538073
 H        -0.6186640038        0.9034529329       -2.6364315395
 H        -0.5657481013       -0.9531994076       -2.8263611876
 H        -2.1213043201       -0.2143527282       -2.2729498760
 H        -0.8063676309        1.6410253184       -6.1127553576
 H         0.5341000266        0.6001673863       -5.3347392660
 H        -0.2175533521        1.9715835728       -4.5249269994
 H        -2.2704678869       -5.6063722257       -7.8832008815
 H        -3.7494415987       -5.8652549794       -8.5079944097
 H        -3.5199943718       -4.4895951165       -7.2272415586
 H        -3.1857861317       -4.9486016931      -11.2061942134
 H        -1.6703185201       -5.4060443616      -10.2145781367
 H        -1.8299312847       -3.7922317219      -11.2845944740
 H        -3.3302892324        2.3167067503       -9.4920591610
 H        -1.8542654127        1.9383492852      -10.5920146993
 H        -2.3559383501        0.8817617457       -9.2453130087
 H        -4.0078824783        2.5844499250      -11.6354282044
 H        -5.3027955578        1.6730649418      -11.7175898015
 H        -4.0906340433        1.4093024097      -12.9374710815
 H         0.8934455070       -3.7934515404      -13.9710801575
 H         1.9197828533       -3.8238333831      -12.5549613123
 H         2.5351622421       -4.0172276875      -14.1538395883
 H         4.0785963414       -1.9139586506      -13.0575605774
 H         3.1458083828       -1.9885755167      -11.6562969985
 H         3.1269834148       -0.4280847595      -12.4888387152
 H         4.3618411949        3.2408150082      -16.7045411097
 H         5.5605272312        3.3709126004      -18.0377522034
 H         5.8865509373        2.2386990455      -16.6743898578
 H         4.6620987369        2.6031500154      -20.1667111013
 H         3.1253554066        2.8620999298      -19.1144572317
 H         3.3526988175        1.6244986403      -20.0844041142
 H         9.2470258917       -1.8589546883      -23.4135360201
 H         9.2898308362       -2.4588472954      -21.6971463695
 H         9.6040124604       -0.7067485739      -21.9070679433
 H         7.9079519546       -0.4530522474      -24.2196396721
 H         6.0798843628       -0.2203785608      -23.5925019026
 H         6.8400140417       -1.5939044687      -24.3578494094
 H         5.8058497864       -3.7929971462      -17.9177186075
 H         6.2253920830       -5.3134880898      -18.1145846141
 H         4.7919344884       -4.9126474473      -17.1308107686
 H         4.8313512993       -6.2942817430      -21.0629712920
 H         4.7505321880       -7.1923065860      -19.5893743281
 H         6.0738569705       -6.2342009303      -19.8097620917
 Na        3.5982405458       -2.0886361468      -17.7691794353
 Na       -6.4339409208       -1.5687034375       -7.4208603004
