232

 C         2.2737163231       -6.3806681438      -19.5231729372
 C         3.0064548280       -5.1312080472      -19.0786426480
 O         2.3473188544       -4.3407144486      -18.4377383081
 C         4.5342235700       -4.9917229078      -19.4217018076
 C         4.5223084655       -3.8067016014      -20.4163045968
 O         4.3264009404       -2.7210299929      -19.8224955286
 C         4.5340771368       -3.8052939858      -21.9507276977
 C         5.1339337141       -2.5494280728      -22.5130850612
 C         6.6600907251       -2.5462817334      -22.3782091040
 O         7.2764760081       -3.6049336782      -22.3227782090
 C         7.4256697047       -1.2100773014      -22.4820996965
 C         6.8327405723       -0.3423425885      -21.3962402408
 O         5.7034304521        0.0174422622      -21.5651419699
 C         7.5779896184       -0.0195013158      -20.0211442292
 C         6.7421202197        1.1330343153      -19.2494824960
 C         5.5480221866        0.5391043096      -18.4857917395
 O         5.5308086613       -0.6351377241      -18.1799932467
 C         4.4023440897        1.5084668184      -18.0739500661
 C         3.2796071635        0.5057770407      -17.5399353984
 O         2.7199510090       -0.1996178536      -18.3678215535
 C         2.9760583964        0.4231366849      -16.0053109132
 C         1.8164220621       -0.4533026222      -15.7405988717
 C         2.2783587896       -1.7957989310      -14.9430875490
 O         2.7963317367       -2.7046313224      -15.5421347047
 C         2.0050184302       -1.9387571179      -13.3985684785
 C         0.8260828735       -0.9851479876      -12.9441344626
 O         0.9089480468        0.1874429036      -13.1878196312
 C        -0.3646169010       -1.6502375062      -12.2461409223
 C        -1.1109346742       -0.5855646692      -11.4924035636
 C        -2.6066286399       -0.4262676891      -11.8816091333
 O        -3.1458218057       -0.7557201687      -12.8944817964
 C        -3.5406414637        0.4235678284      -10.9239699214
 C        -4.4115810312       -0.5229527860      -10.1390416111
 O        -4.5839495559       -0.3511792034       -8.9592645065
 C        -5.2235404783       -1.5625909113      -10.9024638586
 C        -4.7740600843       -3.1140147136      -10.9006178591
 C        -4.2233871685       -3.5140491225       -9.5020399225
 O        -4.8927772117       -3.3714516681       -8.5106291099
 C        -2.8237817951       -4.0623901396       -9.2481217261
 C        -1.9807512740       -2.8180658078       -8.5629362108
 O        -1.0500744739       -2.3941292034       -9.1465234378
 C        -2.4752707467       -2.2672904686       -7.2514293317
 C        -1.3805619097       -1.2921773073       -6.7075211794
 C        -1.4109187354       -1.0930069937       -5.1966305409
 O        -1.7755391331       -1.9682528531       -4.4647606110
 C        -1.2228698252        0.3066804322       -4.5081292486
 C        -2.6508690340        0.8953525277       -4.7541793526
 O        -2.8178742807        1.4908742883       -5.7659967346
 C        -3.8173226384        0.3310553392       -3.9180802424
 C        -5.1218391549        1.1481777865       -4.0667329170
 C        -6.2634753375        0.6053977942       -5.0408792804
 O        -6.1107510062       -0.3841589050       -5.7636438835
 C        -7.6422378523        1.3498705197       -5.1055528137
 C        -8.2240378171        1.2256213694       -6.5558917381
 O        -8.0756599027        0.2231780872       -7.2293644644
 C        -9.1465587132        2.3061434606       -7.1369619624
 C        -9.7120281276        1.8999532127       -8.4972904177
 C       -10.6330122632        0.6763340935       -8.3724359969
 O       -11.6034810911        0.6671271008       -7.6650401900
 C       -10.3677475616       -0.6762388039       -9.2993834956
 C        -9.1176577399       -1.5237760880       -8.8419322087
 O        -8.0889145536       -1.2736847371       -9.4515935105
 C        -9.1899921030       -2.5049354644       -7.6197142973
 C        -8.5845487889       -3.9083143503       -7.9692830524
 C        -7.7265000536       -4.3391995803       -6.8378704963
 O        -6.7500165602       -3.6808872037       -6.5584271818
 C        -7.9356566678       -5.6838008860       -6.2363217707
 C        -9.3046957011       -5.8534748903       -5.5157565585
 O       -10.3090685362       -5.8934850616       -6.1859621990
 C        -9.3996139664       -5.9599915336       -4.0059722488
 C       -10.8246620005       -5.5450425597       -3.5636419441
 C       -11.1359016325       -4.0766943485       -3.4612586361
 O       -10.4446699601       -3.2357473209       -4.0652840556
 C       -12.2373887590       -3.7231749125       -2.5951638588
 C       -11.5057714600       -3.3532719949       -1.1498010084
 O       -11.6257121098       -4.0785178314       -0.1924237748
 C       -10.8070770364       -2.0273131483       -1.1066308285
 C       -11.2452510556       -1.1957070652        0.1090013703
 C       -10.4662219867        0.0500326159        0.4471900099
 O        -9.3889274216        0.3409190962       -0.0445730846
 C       -11.1247985752        1.2324566115        1.3571318745
 C       -11.9914381396        0.5786972209        2.4979564312
 O       -12.5549136361       -0.4449009527        2.2471224655
 C       -12.2823083000        1.3577747817        3.6779380050
 C       -10.0575506009        2.2792145924        1.7708742148
 C       -12.0512430523        1.8966747364        0.3751685496
 C       -13.1230914468       -2.5444291302       -3.0832615214
 C       -13.3369435756       -4.9061536382       -2.3258749642
 C        -7.9444719892       -6.5567256664       -7.5836054997
 C        -6.7741489793       -6.1212555428       -5.3597625058
 C       -11.7386439876       -1.5828663512       -9.1423170164
 C       -10.0992788375       -0.1313928770      -10.7123858502
 C        -8.6888172796        0.4309733791       -4.3028558675
 C        -7.5853003247        2.7405831705       -4.6431491096
 C        -0.8516001184        0.0929878792       -3.0118953923
 C        -0.1770657322        1.1482278169       -5.2422691312
 C        -2.9560769396       -5.1258234672       -8.0906078951
 C        -1.9671960204       -4.4614476815      -10.5130832668
 C        -2.8351398098        1.4266837328      -10.0793857959
 C        -4.4372343584        1.2892449734      -11.7958250147
 C         1.7591849510       -3.3753764388      -13.1106702894
 C         3.3603735619       -1.5051281330      -12.7909365899
 C         4.8555221348        2.6082202017      -17.0851774245
 C         3.9867320933        2.1301241611      -19.4214259990
 C         8.9388800686       -1.4529213121      -22.2464581346
 C         7.4050706454       -0.2721451422      -23.8081215575
 C         5.4062854601       -4.8417662684      -18.0281907751
 C         5.1407897026       -6.1888341883      -20.0784361285
 H         1.2124373580       -6.3618383894      -19.4172323809
 H         2.6961216766       -7.2732866535      -19.0877468495
 H         2.4725178973       -6.5512908836      -20.5640938343
 H         3.6043279720       -4.0607189061      -22.3775888639
 H         5.1565256855       -4.6414118200      -22.2828590615
 H         4.7730588065       -1.6745042186      -22.0272560094
 H         4.8617753066       -2.3185514640      -23.6126310085
 H         8.6331128520        0.3026633828      -20.2599509945
 H         7.5904127488       -0.8850674776      -19.3559136800
 H         6.5376618461        1.8561035387      -20.0179548327
 H         7.3584881885        1.6069705530      -18.4472212451
 H         2.6437581470        1.4192834756      -15.6725993576
 H         3.8966984719        0.1088332638      -15.5166084423
 H         1.3312435822       -0.9747413598      -16.5193560126
 H         1.0058969366       -0.0221295354      -15.1422046331
 H         0.0719392311       -2.3484909341      -11.5348617864
 H        -0.9946281469       -2.2027063757      -12.9852697220
 H        -0.6663857132        0.4401969430      -11.8481465106
 H        -0.9098588077       -0.5260010295      -10.3777205733
 H        -5.3003455656       -1.3628417409      -11.9894204932
 H        -6.2920321745       -1.4396871381      -10.5987071203
 H        -4.0470109881       -3.3091614341      -11.7047325577
 H        -5.6361167048       -3.8050164885      -11.1381345854
 H        -2.8109291748       -2.9290863698       -6.4771368556
 H        -3.4317921551       -1.8222046583       -7.4811682296
 H        -1.3468606928       -0.2836621997       -7.2691845835
 H        -0.4631724962       -1.7743092881       -6.9878884260
 H        -3.7440705460        0.1880100150       -2.8013626829
 H        -3.9734664255       -0.5928003090       -4.3986540447
 H        -4.9298335649        2.1334145542       -4.4229339906
 H        -5.6875674625        1.2729104924       -3.1110438316
 H        -8.8398946419        3.3050879513       -7.1961960964
 H       -10.0700937492        2.3348693506       -6.5076827689
 H        -8.9248730631        1.7826991892       -9.2064646217
 H       -10.3288164297        2.6672170069       -8.9546318239
 H       -10.2382278570       -2.6369037843       -7.2677573353
 H        -8.6884382708       -2.1080587559       -6.7391394284
 H        -7.9481757646       -3.8371587737       -8.8103347254
 H        -9.3955750926       -4.5620280551       -8.0544189776
 H        -8.5882251116       -5.2971144251       -3.7094419995
 H        -9.2115853269       -7.0242895937       -3.7273802049
 H       -11.1265072635       -6.0868733905       -2.7092662303
 H       -11.5146364502       -5.9007485854       -4.3500409854
 H       -11.0560141517       -1.4164666564       -1.9955442322
 H        -9.6929146268       -2.1179220727       -1.2252317760
 H       -11.2359278089       -1.8347405531        0.9750409372
 H       -12.2281452786       -0.8538268737       -0.1353641735
 H       -13.3773567407        1.2029267681        4.0001756601
 H       -12.1598915594        2.4627127188        3.5640039602
 H       -11.6479774255        1.1593894943        4.5537235025
 H       -10.5632814121        3.2708928248        2.0439019292
 H        -9.2786398714        2.5755222164        0.9376091613
 H        -9.3945690121        2.0676193212        2.6717777789
 H       -11.5503323611        2.5312021818       -0.3602177211
 H       -12.7474007488        2.6096962231        0.8356920718
 H       -12.7276954523        1.2541127200       -0.1681764999
 H       -13.7304433307       -2.8061733333       -3.9262233634
 H       -12.4175511574       -1.6901640231       -3.2798014354
 H       -13.9138170152       -2.3117315960       -2.3661388045
 H       -14.1602541593       -4.6529720709       -1.6722560701
 H       -12.9061385625       -5.7827000269       -1.9296227599
 H       -13.7427552778       -5.1796919720       -3.2555708060
 H        -7.1768268070       -6.2602555502       -8.2770547377
 H        -8.9550876951       -6.4141733101       -8.0682082605
 H        -7.7352388404       -7.5859776688       -7.2977021847
 H        -7.0471393854       -5.9175829443       -4.2905979174
 H        -5.8872797982       -5.5433759304       -5.5280073963
 H        -6.6614915481       -7.1823403399       -5.4787472544
 H       -11.3345104562       -2.6181827709       -9.4943522082
 H       -12.6443371706       -1.1984582943       -9.6383468128
 H       -11.9375040244       -1.6488405256       -8.0680590550
 H        -9.0358670568        0.2500827987      -10.8168784802
 H       -10.7822539014        0.6919171418      -10.8775388547
 H       -10.3071180408       -0.8659353955      -11.4508358270
 H        -9.7898346900        0.7622539483       -4.4044406140
 H        -8.4062935223        0.4192010540       -3.2254738955
 H        -8.6128017538       -0.4865327481       -4.8694653886
 H        -8.5776294176        3.1887627173       -4.8066322783
 H        -6.7596482763        3.3025332100       -5.1402468080
 H        -7.4949727744        2.9301480603       -3.5134557060
 H        -1.5452894915        0.4578874559       -2.3470897708
 H         0.0324432332        0.5941270571       -2.7591056779
 H        -0.6428292933       -1.0521228158       -2.8262805085
 H        -0.4037384759        1.2772928067       -6.2955781653
 H         0.7672798420        0.7613770401       -5.0418628078
 H        -0.1029315683        2.1683246216       -4.8196061094
 H        -2.0051691913       -5.2203220366       -7.5431334227
 H        -3.1755912457       -6.1374143175       -8.4802279700
 H        -3.8100762166       -4.8298528407       -7.4259540933
 H        -2.0581924444       -5.4348155406      -10.8641901998
 H        -0.9842711748       -4.3783400420      -10.0471633148
 H        -1.9611443678       -3.7403283128      -11.2479426339
 H        -3.4710482388        1.5728919823       -9.1877006954
 H        -2.6781447676        2.2910147106      -10.7133624873
 H        -1.9206103839        1.0072778296       -9.6326480316
 H        -4.8882604595        2.1874977713      -11.2638807295
 H        -5.3351721488        0.7875266099      -12.1294484171
 H        -3.8191601511        1.7551518320      -12.6249689088
 H         0.8759444075       -3.7888437092      -13.6435635959
 H         1.5745754945       -3.6031716315      -12.0423043073
 H         2.6361139509       -3.9799950430      -13.4448103720
 H         4.0419649868       -2.2788722255      -12.9510438543
 H         3.3668840133       -1.4170219631      -11.7165616209
 H         3.6241386239       -0.5301066973      -13.0653184393
 H         4.0399012272        3.3545272617      -17.2172926297
 H         5.7754151433        2.9191793118      -17.4369468189
 H         5.0024989593        2.3676357375      -16.0129304526
 H         4.6174566014        2.9187297580      -19.8234853344
 H         2.9083922396        2.5551930592      -19.4037632441
 H         3.9905093000        1.5045051459      -20.2511527927
 H         9.2868048106       -2.3187799145      -22.8327517003
 H         9.2678292841       -1.6145875629      -21.2916183618
 H         9.4871377811       -0.5756724102      -22.5554884719
 H         7.7619120846        0.6963440324      -23.4441574097
 H         6.3290391036       -0.2602451236      -24.1821194525
 H         8.1748912217       -0.6020563780      -24.3999685044
 H         6.3777280586       -4.4992026912      -18.2782223541
 H         5.6030622603       -5.7846331019      -17.4834282412
 H         4.9172781127       -4.2224959810      -17.2236325596
 H         4.3989419048       -6.7440636177      -20.6518879751
 H         5.5995172830       -6.8657146068      -19.3501194311
 H         6.0169177835       -5.9281928640      -20.6533750675
 Na        3.6619769787       -2.3086989803      -17.7046610081
 Na       -6.2630581432       -1.3311839563       -8.0220317006
