232

 C         2.1470559148       -6.2719166666      -20.0297825686
 C         3.1422587689       -5.2521711398      -19.4106878033
 O         2.7764401034       -4.5960792744      -18.4530449795
 C         4.6937795332       -5.1675647623      -19.8379065368
 C         4.6402296332       -3.8757441069      -20.7468607634
 O         4.7285497606       -2.8311758905      -20.1870619434
 C         4.7489207562       -3.8649178404      -22.3327285070
 C         5.2665262242       -2.4907583080      -22.8599037994
 C         6.8034241237       -2.3258903582      -22.4758590793
 O         7.4199873188       -3.3681479811      -22.3481640028
 C         7.3919130262       -0.8401054769      -22.4907327702
 C         6.7234814702        0.0422768951      -21.3673959479
 O         5.5620271343        0.3534807631      -21.6196925574
 C         7.4476795440        0.4779127055      -20.1309055027
 C         6.5882006517        1.1609189045      -19.0135913980
 C         5.3844882146        0.4262148388      -18.6250066114
 O         5.4773964887       -0.7469331840      -18.3463257201
 C         3.9981209357        1.2765137412      -18.2069785686
 C         2.9411915879        0.3568138556      -17.6141382705
 O         2.4290374253       -0.4254860783      -18.3981008840
 C         2.5346883376        0.3124508166      -16.0167088710
 C         1.5454062347       -0.8240924834      -15.8101297339
 C         2.3590091004       -1.8502709280      -14.8724266520
 O         3.0403114679       -2.6656272514      -15.5107994978
 C         2.3162004006       -1.8305946057      -13.3044667071
 C         1.1498695318       -0.7930397807      -12.8072105036
 O         1.3253706402        0.4111982137      -12.9510004227
 C        -0.3112684912       -1.2398667405      -12.3384732599
 C        -1.2126423072       -0.1302039023      -11.6440051292
 C        -2.7198970073       -0.3645154872      -11.8818757136
 O        -3.0981057907       -0.9207925680      -12.8958513677
 C        -3.7806607680        0.3367704744      -10.9906154713
 C        -4.5804902958       -0.6954938733      -10.1224113145
 O        -4.9787717582       -0.4388906797       -8.9562906859
 C        -5.0036336911       -1.9224855546      -10.8975866459
 C        -3.9306261980       -2.9833512965      -10.7895893413
 C        -3.9086716529       -3.5581178193       -9.3634986553
 O        -4.8041485591       -3.4051612684       -8.5298129597
 C        -2.4818171212       -4.3331379682       -8.9997580753
 C        -1.5396733565       -3.1945406912       -8.4449490728
 O        -1.0108607605       -2.4242149675       -9.2902102284
 C        -1.6320428815       -2.8921628768       -6.9834321482
 C        -1.2784884814       -1.4749916499       -6.6312922511
 C        -1.4260885756       -1.2540828219       -5.1276905836
 O        -1.5685555471       -2.1062215272       -4.2680293869
 C        -1.3406902226        0.3105320429       -4.6257399328
 C        -2.7019272244        1.1175747349       -5.0065939053
 O        -2.8603395236        1.5947353598       -6.1396907202
 C        -3.8606989972        1.2097642366       -4.0183721529
 C        -5.0669652086        2.0167662758       -4.4069765540
 C        -6.0398714198        1.1097722237       -5.1636372569
 O        -5.6630412558        0.0651447656       -5.6334423492
 C        -7.5495725245        1.3681730912       -4.9994210280
 C        -8.2533297094        1.2021607165       -6.3330614760
 O        -8.1661727362        0.1307519756       -6.8777876821
 C        -9.2328594152        2.2335800536       -6.8545997689
 C       -10.0097283678        1.8298324385       -8.1581465479
 C       -10.5836770573        0.4394673285       -7.8891784999
 O       -10.8737376659        0.1549003125       -6.7348177297
 C       -10.6944900578       -0.5924581319       -9.0509204898
 C        -9.4642124783       -1.5785606063       -8.7869903878
 O        -8.3665988175       -1.3876817902       -9.2367764891
 C        -9.7105900785       -2.6681363791       -7.8262067994
 C        -8.8532405494       -3.8537844586       -8.1344262218
 C        -7.9402770402       -4.2245929693       -6.9630104206
 O        -7.2926078746       -3.4300295582       -6.3169386629
 C        -7.9907575919       -5.8214194153       -6.5294195575
 C        -9.3035214849       -5.8607275476       -5.7808197590
 O       -10.3290708019       -6.1049881929       -6.3938417907
 C        -9.3629539727       -5.6970360139       -4.1679114132
 C       -10.8327744656       -5.6542504663       -3.6527054993
 C       -11.1115520645       -4.1714309874       -3.4606402139
 O       -10.6034908981       -3.3104768831       -4.0975443087
 C       -12.2681204713       -3.7494330051       -2.3653079611
 C       -11.4554137646       -3.2902307495       -1.1420879303
 O       -11.2625855335       -4.0862228992       -0.2465763577
 C       -10.8749137298       -1.8092007526       -1.0844306109
 C       -11.4888305381       -1.0186272950        0.0989422233
 C       -10.6118168617        0.2313362531        0.3662293658
 O        -9.5007157234        0.2831365020       -0.1343430756
 C       -11.1612334672        1.2406249268        1.3839990468
 C       -12.0099965850        0.6379673771        2.6199222867
 O       -12.5501077042       -0.4690608602        2.5553695449
 C       -12.1632264554        1.3379626594        3.9410149197
 C       -10.1332653094        2.2945703885        1.8493847407
 C       -12.3025832794        2.0755816060        0.6390598700
 C       -13.0442717813       -2.5804093842       -2.9879948336
 C       -13.1405331374       -4.8881536251       -2.1005899829
 C        -7.9024908241       -6.7153288878       -7.8231012495
 C        -6.7879392690       -6.2255230879       -5.5782487081
 C       -12.0892463719       -1.2435024910       -9.0260411881
 C       -10.4282240741        0.0095892601      -10.4603874965
 C        -8.0528815632        0.3623774030       -3.9215713110
 C        -7.9442570744        2.7854692843       -4.4636782834
 C        -0.9506850771        0.3031283126       -3.1866881835
 C        -0.1705052523        1.1237515419       -5.3454100442
 C        -2.9409799258       -5.5525704504       -8.0631206259
 C        -1.8248881451       -4.9264087602      -10.2716609514
 C        -3.3182234272        1.4514076961      -10.0830509223
 C        -4.7336621975        0.9424772110      -12.0287569266
 C         1.9684648671       -3.3529227139      -12.9812815120
 C         3.6832346809       -1.5136398690      -12.7691241464
 C         4.4672835447        2.3166221778      -16.9863214922
 C         3.5887816224        2.1748131425      -19.3852465995
 C         8.8334586683       -0.9828861330      -22.2866505165
 C         7.1735968223       -0.0253107957      -23.8061257202
 C         5.6626762216       -5.0402642749      -18.6242205113
 C         5.1074843458       -6.4927782927      -20.5967091377
 H         1.2712265381       -6.1550963398      -19.4343905439
 H         2.3783948693       -7.3164055380      -19.8902599735
 H         1.9967867562       -6.1686879079      -21.0741900576
 H         3.8330996531       -4.0385825479      -22.8264274094
 H         5.3760886919       -4.7065856238      -22.6224271384
 H         4.5202167383       -1.7275307955      -22.4498207319
 H         5.3185222048       -2.4478628838      -23.9331159779
 H         8.3651058920        1.0436457516      -20.3582342432
 H         7.9170916620       -0.3938070126      -19.6226226151
 H         6.4741460247        2.2313353691      -19.2605669180
 H         7.2737255477        1.2190790561      -18.1726802072
 H         2.1083784631        1.2902607274      -15.7755123851
 H         3.5167497980        0.2252354453      -15.5503669040
 H         1.2781105324       -1.2116035356      -16.8240506045
 H         0.5819990353       -0.6206476501      -15.3487814825
 H        -0.2693205506       -2.1425989820      -11.6966756620
 H        -0.8857092432       -1.4850171968      -13.2267312573
 H        -0.9149264468        0.9143325875      -12.0287384697
 H        -0.9646261137       -0.1997357015      -10.5303617335
 H        -5.2116509224       -1.6279342609      -11.9684810664
 H        -5.9362185320       -2.4098752579      -10.5474937937
 H        -2.8853981197       -2.6538109987      -10.9779071725
 H        -4.1637958237       -3.8477227646      -11.4682425068
 H        -0.9229330553       -3.5097134866       -6.4682055698
 H        -2.5980973673       -3.2116347811       -6.5842120833
 H        -1.7505448457       -0.7112722314       -7.2398524377
 H        -0.1918806601       -1.2504758127       -6.9197452896
 H        -3.5107705927        1.6785535972       -3.1374214210
 H        -4.1632223985        0.1937675918       -3.6884759528
 H        -4.8343042641        2.8452004489       -5.0617945427
 H        -5.6382928477        2.4058737699       -3.6070567519
 H        -8.6754364062        3.1705120504       -7.1383484336
 H       -10.0069690073        2.4362854438       -6.2076043377
 H        -9.3588598712        1.7477679102       -9.0060045345
 H       -10.6119799798        2.6675475095       -8.4700160144
 H       -10.7453485826       -2.8572474477       -7.8178683128
 H        -9.5117310956       -2.1268261763       -6.8623070005
 H        -8.2374051456       -3.6632467296       -8.9392698966
 H        -9.5720544527       -4.6357513431       -8.3457944061
 H        -8.8660527546       -4.7825338886       -3.7763883258
 H        -8.9729527733       -6.6627737142       -3.8752002559
 H       -10.8623357975       -6.2259915061       -2.7473295405
 H       -11.5406879478       -6.0148157590       -4.4027991264
 H       -11.1780819084       -1.1938155329       -1.9718287035
 H        -9.7855732988       -1.6997809084       -1.1162521304
 H       -11.5585988987       -1.5551350532        1.0384288138
 H       -12.4686190877       -0.7576431863       -0.2572546027
 H       -12.7506888280        0.6943071465        4.5626057840
 H       -12.7573135222        2.2828343540        3.9891337991
 H       -11.3336881948        1.4254706861        4.6969033506
 H       -10.4324301943        3.3758682502        2.0290605068
 H        -9.4909128226        2.5829898705        1.0037808026
 H        -9.5582159561        2.0106927634        2.8022211800
 H       -12.0488953494        2.7693935735       -0.1949371549
 H       -12.8507668208        2.6795310149        1.3006040057
 H       -12.9792672923        1.4063657017        0.1241890895
 H       -13.8227145729       -3.1153309424       -3.6154833741
 H       -12.5758267437       -2.0720960411       -3.7829311088
 H       -13.4095655764       -1.9662553781       -2.2028859169
 H       -13.8760748329       -4.7741709625       -1.3732412962
 H       -12.6007342453       -5.7333830533       -1.7055728293
 H       -13.6054276767       -5.1900577036       -3.0384920514
 H        -6.8166835351       -6.7235155256       -8.0898423013
 H        -8.4409382246       -6.2199498904       -8.6205936505
 H        -8.2416899357       -7.7260125264       -7.6497475752
 H        -6.1558574727       -6.8266916393       -6.1450270591
 H        -7.0897282441       -6.6654809462       -4.6351485228
 H        -6.2119887671       -5.3040606465       -5.2991531754
 H       -11.9831014395       -2.1154149838       -9.6395623574
 H       -12.8517386717       -0.5506490999       -9.5353784441
 H       -12.3423301246       -1.5456452708       -7.9448201866
 H        -9.4332446891        0.2864366557      -10.5412102437
 H       -11.0860324000        0.8646791710      -10.6692939174
 H       -10.5772544646       -0.7550214406      -11.2693971100
 H        -9.0847053170        0.6380874141       -3.7413316489
 H        -7.4997868834        0.7681899754       -3.0366131497
 H        -7.8880198430       -0.7373618482       -4.2289055344
 H        -9.0641321535        2.9674320632       -4.4616733497
 H        -7.5630916097        3.6326092974       -5.0823098936
 H        -7.4431443551        2.9916954027       -3.5204045515
 H        -0.9122716815       -0.7106726888       -2.7445359772
 H        -1.7397512034        0.8516059498       -2.5422903573
 H        -0.0663190679        0.6669680740       -2.9189524895
 H        -0.3959912639        1.2218820805       -6.4058825582
 H         0.8331760314        0.6879134641       -5.3052108169
 H        -0.1541806058        2.0671371639       -4.9096860483
 H        -2.2008453698       -5.9594027478       -7.3635897494
 H        -3.4376698547       -6.2564418454       -8.7057178075
 H        -3.8109607345       -5.1994483281       -7.4867180735
 H        -2.5853538852       -5.2270176894      -10.9435581558
 H        -1.4354234013       -5.8297659553      -10.0113656205
 H        -1.0076735400       -4.3655773532      -10.6402157264
 H        -4.1824160959        2.1113079496       -9.8647411995
 H        -2.5964315453        2.0475641810      -10.6963159214
 H        -2.8235463316        1.0458880071       -9.2278516224
 H        -5.5615838037        1.4733047371      -11.5637202692
 H        -4.8762140915        0.1788174850      -12.8943966933
 H        -4.2410189095        1.8296532853      -12.4933424718
 H         1.2201019573       -3.7789169817      -13.6462794857
 H         1.4279897708       -3.4415501749      -12.0211937651
 H         2.9376254048       -3.9047668995      -12.8876703530
 H         4.4367212492       -2.1023807803      -13.3466296217
 H         3.7818522015       -1.7464333674      -11.7247392981
 H         3.9126085511       -0.4461868068      -12.9493033337
 H         3.6343910407        2.7629893825      -16.4947202535
 H         5.1744552246        3.0822818483      -17.4418811203
 H         5.0247097242        1.7065874626      -16.3231492418
 H         4.3097984487        2.8283211623      -19.8406824186
 H         2.8880513267        2.8741857152      -19.0935593847
 H         3.1765624797        1.6196295963      -20.3092805403
 H         9.2986284714       -1.6462257163      -22.9716357955
 H         9.0440260537       -1.4384258591      -21.3066824261
 H         9.4697110509       -0.1632265523      -22.4615269407
 H         7.8585283184        0.7964773342      -23.7371458111
 H         6.2784895966        0.4350250786      -23.8520823188
 H         7.2748697854       -0.8377575058      -24.5665090970
 H         6.6868854011       -5.0258809723      -19.0785787802
 H         5.3730477247       -5.8472596294      -17.9710717647
 H         5.6955067559       -4.1778945131      -17.9768808110
 H         4.2185336455       -7.0252619740      -20.9871063874
 H         5.5634955767       -7.1872809229      -19.8653325731
 H         5.7391128724       -6.3941676436      -21.4863680469
 Na        3.8541457080       -2.4464147556      -18.0496000071
 Na       -6.3452962625       -1.5650826202       -7.4552905491
