232

 C         2.0762600609       -6.1955495613      -20.0585846090
 C         3.2385941428       -5.3487454054      -19.5276452773
 O         2.9642083002       -4.6190056552      -18.5913671307
 C         4.7298685531       -5.3364674250      -20.1064373094
 C         4.6042052071       -3.8823926291      -20.9156912205
 O         4.6670332882       -2.8950541382      -20.1891738868
 C         4.8469284750       -3.7650445682      -22.4396842731
 C         5.4136002699       -2.4010073675      -22.8583993340
 C         6.8323127494       -2.1439641293      -22.4604002975
 O         7.5101218051       -2.9873776161      -21.9244198931
 C         7.3934292222       -0.5921870733      -22.5715975909
 C         6.7041771352        0.0221505740      -21.3721503138
 O         5.4988350821        0.2267816531      -21.3798107847
 C         7.3272186158        0.0894573263      -19.9616976470
 C         6.5001539771        1.1560036875      -19.1374152215
 C         5.2061748389        0.4734413213      -18.6207911326
 O         5.2166815927       -0.7208748761      -18.4928464474
 C         3.9664364631        1.3223339529      -18.0775218618
 C         2.9516681663        0.2407497865      -17.5547819149
 O         2.5441488058       -0.6119932225      -18.2857781600
 C         2.1540923276        0.5975159715      -16.2050128314
 C         1.4798260983       -0.6832543184      -15.6930388021
 C         2.3616374780       -1.6939163662      -15.0122704861
 O         3.1724767712       -2.4177278248      -15.5214261635
 C         2.0972755494       -1.8710742658      -13.4433292089
 C         1.1448263204       -0.7338366435      -12.9338252487
 O         1.5898892447        0.4034617609      -12.9737813469
 C        -0.1763149539       -1.1281023497      -12.4088697265
 C        -1.0707400276       -0.0707885885      -11.7088015941
 C        -2.5630902617       -0.2368479812      -12.0788538283
 O        -2.8339532991       -1.0695622228      -12.9038658923
 C        -3.7858066274        0.3867540110      -11.1053724006
 C        -4.5885248610       -0.7079815123      -10.2615661677
 O        -5.1061386829       -0.3395443257       -9.2458549528
 C        -5.0065375268       -2.0267021761      -10.7439634200
 C        -4.0220508748       -3.1641004873      -10.8164461919
 C        -3.8579345259       -3.7269411091       -9.2972340701
 O        -4.4529578171       -3.2842592654       -8.3521073441
 C        -2.5087301431       -4.5949518703       -8.8919859291
 C        -1.6475701647       -3.4199967656       -8.3591279330
 O        -1.0728918794       -2.7266222241       -9.1135141130
 C        -1.4018575492       -3.0105416924       -6.8432282142
 C        -1.4691680271       -1.4669257074       -6.7005663175
 C        -1.3856850382       -1.1109987722       -5.1430255841
 O        -1.6220318568       -1.9686687444       -4.2968010680
 C        -1.2351014798        0.3592384466       -4.6489970306
 C        -2.5424944341        1.1333129513       -4.9740466679
 O        -2.7813291749        1.4387517742       -6.1016772623
 C        -3.5497202251        1.6282052545       -3.8626541302
 C        -4.8429691032        2.1939190996       -4.5478769794
 C        -5.9015344423        1.1372646345       -5.0701318318
 O        -5.4910906339        0.2034553051       -5.7526233247
 C        -7.4086595418        1.3556634524       -4.8777382601
 C        -8.1861831983        1.1661106092       -6.2300401204
 O        -8.1085304628        0.1757162220       -6.9276045439
 C        -9.1841154589        2.1866261911       -6.6528247143
 C       -10.0075859160        1.7261852262       -7.9306147075
 C       -10.6818041558        0.3877315317       -7.8018449410
 O       -11.0186927232       -0.0232355614       -6.7269304877
 C       -10.7673939994       -0.5723187141       -9.0907321384
 C        -9.6493434468       -1.5761380502       -8.7825826077
 O        -8.4673085453       -1.4116526937       -9.1318721436
 C        -9.9016222497       -2.9206218479       -7.9429422425
 C        -8.8172201671       -3.9852811680       -8.1974338289
 C        -7.9806017202       -4.2589534808       -6.9691188977
 O        -7.2553092746       -3.3695058133       -6.5215789792
 C        -8.0395418859       -5.8841586710       -6.4752855249
 C        -9.4163521981       -6.0913842509       -5.7361019040
 O       -10.3617958638       -6.4569311963       -6.3951793437
 C        -9.3531385680       -5.9721810712       -4.2338343597
 C       -10.6116301251       -5.5734043739       -3.5126376326
 C       -11.1281265048       -4.1026279861       -3.5331164322
 O       -10.6150579092       -3.1951364739       -4.2059433972
 C       -12.2119012247       -3.7618148363       -2.4728596716
 C       -11.3561883597       -3.2891183051       -1.2087243014
 O       -11.1398226866       -4.1377183752       -0.3948628056
 C       -10.8907941565       -1.8412502061       -1.0497349757
 C       -11.5771139745       -0.9864121771        0.0581694841
 C       -10.7813915920        0.2034614678        0.4939398541
 O        -9.6914613033        0.4555543994        0.0077507454
 C       -11.3766043517        1.3237683120        1.4004457463
 C       -11.9970267285        0.6428865424        2.6649443348
 O       -12.4780437686       -0.4506485514        2.6743964083
 C       -11.8934658327        1.4664011273        3.9134457611
 C       -10.1360110236        2.2218875244        1.8633235010
 C       -12.4266009866        2.1103496099        0.7633754205
 C       -13.1767101903       -2.6120379969       -2.9334837906
 C       -13.1766977503       -4.9214435400       -2.0316753561
 C        -8.0049359791       -6.7836823691       -7.7551591206
 C        -6.7843511372       -6.1145346483       -5.6227370561
 C       -12.1399436306       -1.2546313912       -8.9217100880
 C       -10.5208935971        0.2396562980      -10.3392415920
 C        -7.9761753767        0.2184325911       -3.8627251893
 C        -7.7173576634        2.7224759591       -4.3434099847
 C        -0.9726777399        0.4001087423       -3.1928028020
 C        -0.1772536977        1.0884787484       -5.5089720756
 C        -2.9004064474       -5.5327442889       -7.7982466158
 C        -1.7893726502       -5.2548282436      -10.1180868351
 C        -3.1293547919        1.4294464399      -10.1152719720
 C        -4.9752049123        0.9991723549      -12.0136582144
 C         1.7355973490       -3.2549766956      -12.8757057921
 C         3.5095394829       -1.4230114194      -12.7669159055
 C         4.5207357892        2.4764109482      -17.1617057478
 C         3.2006684312        1.8850016618      -19.3033866021
 C         8.8609807912       -0.7401939436      -22.4316965267
 C         7.0622095591        0.1122362786      -23.9724695139
 C         5.7502184724       -5.3517935229      -18.8905456967
 C         5.0416341842       -6.4864549291      -21.0166585670
 H         1.3544590534       -6.4383103452      -19.2813340020
 H         2.4355850735       -7.2177643776      -20.3411459746
 H         1.6586033182       -5.7877153055      -21.0149434068
 H         3.9831456236       -4.0645205558      -23.0973011508
 H         5.6687375734       -4.4740904433      -22.6657784869
 H         4.9149872069       -1.6129610629      -22.4166380974
 H         5.3643678737       -2.3288860859      -23.9789086292
 H         8.3989095648        0.2267358014      -19.9441039785
 H         7.2668343679       -0.8568443540      -19.4552619962
 H         6.4727228648        1.9717139376      -19.8440606348
 H         7.1067236637        1.6437101669      -18.3470110817
 H         1.4734833103        1.3961993099      -16.5053576104
 H         2.7953679345        1.0152985470      -15.4205363885
 H         1.0997270710       -1.2858701807      -16.5308046357
 H         0.5181317543       -0.4974646636      -15.1144991675
 H        -0.0032598562       -2.0327539364      -11.7943820235
 H        -0.7804403390       -1.4799642053      -13.3245653763
 H        -0.6619836449        0.8631496101      -12.0556397544
 H        -0.8623437510       -0.2045113324      -10.6666216290
 H        -5.5069973755       -1.9184775929      -11.7024151529
 H        -5.8162061710       -2.3626676459      -10.0511210200
 H        -3.0215914421       -2.8226072204      -11.1022820742
 H        -4.4015803557       -3.9337086593      -11.4873498654
 H        -0.3346434369       -3.3119066075       -6.5999668796
 H        -2.0641945042       -3.4886477515       -6.0952427198
 H        -2.3351088468       -0.9691932113       -7.2082943314
 H        -0.6767935857       -1.0653504321       -7.2618787429
 H        -3.1099569410        2.4604577195       -3.2094210623
 H        -3.7022940735        0.8625568808       -3.1168763969
 H        -4.5673745979        2.7700530530       -5.4428885852
 H        -5.4923084691        2.8623495723       -3.9251976048
 H        -8.7703209518        3.1149241263       -6.9648129529
 H       -10.0285257976        2.2565418799       -5.8252668619
 H        -9.4318457243        1.9303690320       -8.8592887833
 H       -10.8402050717        2.4584842565       -8.0558312642
 H       -10.8909314000       -3.3822731916       -8.2670508706
 H       -10.0332326007       -2.5238352119       -6.9340831615
 H        -8.1355802440       -3.7386846489       -9.1339329593
 H        -9.4636357519       -4.8587387486       -8.4371099805
 H        -8.6254666504       -5.2404094205       -4.0503401755
 H        -9.1583601137       -6.9807863675       -3.8898539492
 H       -10.3963740317       -5.8774273790       -2.4506539103
 H       -11.3943127521       -6.2308865919       -3.9415914666
 H       -10.9626241552       -1.3650210628       -2.0026258603
 H        -9.8228117736       -1.8911335982       -0.7614946676
 H       -11.9645993811       -1.6520200929        0.8751917367
 H       -12.5183389654       -0.5284216356       -0.3963341631
 H       -12.4944951172        1.2447232901        4.8224368990
 H       -12.0138149495        2.5177912766        3.8235448186
 H       -10.9791462196        1.2493870898        4.3819479233
 H       -10.3424103265        3.0690638043        2.4565111021
 H        -9.6248198713        2.7637927792        1.0655369514
 H        -9.5038784887        1.6553513831        2.4659710734
 H       -12.0880878154        2.6703856677       -0.0863348571
 H       -12.9485357469        2.8509510255        1.4228497313
 H       -13.1802769659        1.4871087937        0.2812929809
 H       -13.7670996278       -2.9859704366       -3.6950468918
 H       -12.5499239618       -1.8648303342       -3.4804811518
 H       -13.5668867543       -2.0891985393       -2.0997845617
 H       -14.1448775943       -4.5700418259       -1.5943741082
 H       -12.6793127975       -5.6026076494       -1.3590133531
 H       -13.4910060653       -5.5365941598       -2.8590598939
 H        -7.0221552072       -6.6962083081       -8.1568185846
 H        -8.7972048874       -6.5572153123       -8.5209731701
 H        -8.1871665279       -7.8092529466       -7.4042012590
 H        -6.1254612069       -5.2109582736       -5.8217791389
 H        -6.2736122601       -7.0295445915       -5.9598477440
 H        -6.9636912375       -6.3226810270       -4.5890783984
 H       -12.2983617462       -2.0725303026       -9.6393409134
 H       -12.8473544487       -0.5262780059       -9.1031767778
 H       -12.2305159445       -1.5496910143       -7.9361415027
 H        -9.4462699243        0.2073208009      -10.6470435977
 H       -10.9121330967        1.2694288765      -10.3473983148
 H       -11.0171615784       -0.2677002756      -11.1456665199
 H        -9.0636372991        0.3438456127       -3.8525917289
 H        -7.5062873119        0.2697209353       -2.9058741211
 H        -7.7554534059       -0.5892885445       -4.3992833865
 H        -8.7730288683        2.8902750415       -4.2292343482
 H        -7.4360919090        3.4777238195       -5.0421084065
 H        -7.2065967008        3.0051306339       -3.3941678247
 H        -1.3568793514       -0.5069252294       -2.6838815812
 H        -1.4282879372        1.2349496593       -2.7305582989
 H         0.1349753320        0.3688702581       -2.7953414296
 H        -0.3803748220        1.0315787169       -6.5878335603
 H         0.7881635197        0.6258458167       -5.4035305942
 H        -0.1640442503        2.1713479410       -5.1583677648
 H        -2.0056250605       -5.6127832825       -7.1964495797
 H        -3.2627350945       -6.5005318164       -8.2223610335
 H        -3.7407060916       -5.1339729787       -7.1573475447
 H        -2.4695881195       -5.4145332286      -10.9777096159
 H        -1.3782654492       -6.3266257004       -9.8659060388
 H        -0.8922510757       -4.6183257331      -10.3699784389
 H        -3.7589340683        1.5372729798       -9.2042809949
 H        -3.1261863438        2.4017364446      -10.5972351431
 H        -2.1019897020        1.1264858685       -9.9416582740
 H        -5.3719788648        1.8901587344      -11.5149916906
 H        -5.6296609761        0.2457119027      -12.2225237068
 H        -4.6178047169        1.3122156194      -12.9893565928
 H         0.8454551385       -3.6830567988      -13.3318867336
 H         1.6092032460       -3.2169880849      -11.7893682720
 H         2.5633509815       -3.8807136696      -13.0846877530
 H         4.3296612579       -1.9722873461      -13.1691946930
 H         3.3629108426       -1.5649820214      -11.6903259541
 H         3.8085266410       -0.4439043888      -13.0814150526
 H         3.7581764098        3.2864994460      -17.3086954659
 H         5.3889457222        2.8506542219      -17.6043568187
 H         4.5801975509        2.1691951576      -16.0794878027
 H         3.7353420550        2.6398044009      -19.8806485469
 H         2.1753432759        2.4354487559      -19.1903279864
 H         3.0270513146        1.0939713052      -19.9887968834
 H         9.3932529539       -1.2346705958      -23.2339826114
 H         9.1719571727       -1.2779966326      -21.5111592635
 H         9.4412618963        0.2310459677      -22.5447233132
 H         6.9730232037        1.1694805366      -23.6870542337
 H         5.9546561305       -0.1148109869      -24.2505143467
 H         7.6546898593       -0.2028858343      -24.7336483728
 H         6.6926970255       -5.0344046434      -19.1360333604
 H         5.6295337482       -6.2828263012      -18.3606322259
 H         5.4690142940       -4.5260989641      -18.1744089323
 H         4.2459180366       -6.7819700684      -21.6435930555
 H         5.4317037853       -7.3297699683      -20.5047077316
 H         5.7470396974       -6.1219924786      -21.7168427224
 Na        3.8991403990       -2.5195164058      -17.8115809695
 Na       -6.3863026542       -1.2957505855       -7.6160279564
