232

 C         2.1565446694       -6.2994016577      -20.1889541358
 C         3.3176424020       -5.5178437415      -19.6741317733
 O         3.1915411845       -4.7526263872      -18.6892825438
 C         4.6126885664       -5.4522332998      -20.4820869622
 C         4.7388622238       -3.9005215258      -20.9967068578
 O         4.5642112621       -2.9963268223      -20.2214081017
 C         5.2130778295       -3.8257519219      -22.4773862235
 C         5.6885703669       -2.4559401888      -22.9565111588
 C         6.8718623948       -2.0023635631      -22.1964640624
 O         7.5946701899       -2.7338433982      -21.5357812795
 C         7.2535017032       -0.4886645664      -22.5582006178
 C         6.5127202677        0.2414549635      -21.3709515549
 O         5.3194699473        0.3981271551      -21.4241205954
 C         7.2244081734        0.5715200746      -20.0605495759
 C         6.3480853493        1.1840969169      -18.8856126830
 C         5.1273520626        0.3517502272      -18.4968422251
 O         5.2527079835       -0.8231259983      -18.1966784374
 C         3.8575352256        1.1850812972      -18.1872514277
 C         2.6721974821        0.1604907973      -17.5400922702
 O         2.5028930147       -0.8983168231      -18.0741198470
 C         1.9340631647        0.6611883359      -16.3769002438
 C         1.2377124439       -0.6674442464      -15.6976626311
 C         2.3180454648       -1.4146458442      -14.9806087939
 O         3.2511101262       -1.9138961504      -15.5209244606
 C         2.1479067515       -1.5806641415      -13.4102144726
 C         1.1044016491       -0.5803003482      -12.8626514007
 O         1.3389866483        0.6025581309      -12.7500278973
 C        -0.1883085300       -1.1158516907      -12.3733983858
 C        -1.2001140547       -0.0208151982      -11.9613134402
 C        -2.6241680068       -0.3706952631      -12.0806157238
 O        -3.0573950521       -1.2297523481      -12.8377609618
 C        -3.6434585547        0.4109182005      -11.2161547876
 C        -4.6087984857       -0.7189526274      -10.2711351351
 O        -5.0490960025       -0.4493148895       -9.2083570286
 C        -4.8311532522       -2.0831477926      -10.8999009332
 C        -3.8679113846       -3.1272810921      -10.3935855526
 C        -3.8316030690       -3.5867677776       -8.9060744006
 O        -4.4839992598       -3.1421242545       -7.9885390735
 C        -2.6955736602       -4.5452057693       -8.6211138858
 C        -1.4966893803       -3.3215079333       -8.2226124667
 O        -0.7996433027       -2.9760691106       -9.1060369314
 C        -1.3823218127       -2.8846895816       -6.7460737490
 C        -1.6741562191       -1.3960037578       -6.5966487475
 C        -1.5281301595       -1.0460222944       -5.0387280170
 O        -1.6920331119       -1.9225764598       -4.2199738865
 C        -1.0820106041        0.4622926688       -4.7927381146
 C        -2.4389227201        1.0883872769       -5.3278429172
 O        -2.5703996151        1.1608648764       -6.5213469168
 C        -3.3696088944        1.6538157931       -4.2285352046
 C        -4.6635587159        2.3567764445       -4.6273737697
 C        -5.7206260161        1.2742523532       -5.1325567663
 O        -5.3047240933        0.3224053555       -5.7673886046
 C        -7.2184467577        1.3177740771       -4.7157627363
 C        -8.0931133940        1.1919880665       -6.0950084799
 O        -7.7319944948        0.3836950976       -6.9487005700
 C        -9.4245699187        2.0804200463       -6.2670447393
 C        -9.9562003307        1.7461214230       -7.6249097701
 C       -10.8129256010        0.4162720376       -7.5621421530
 O       -11.3236398496       -0.0007683475       -6.5570337718
 C       -10.9169051582       -0.5553182257       -8.9017402849
 C        -9.7329782161       -1.6326477741       -8.8365849103
 O        -8.5847570735       -1.3794715475       -9.2265033547
 C        -9.9741520320       -3.0233731314       -8.0132606564
 C        -9.0507010028       -4.1931263947       -8.4093429663
 C        -8.0474553983       -4.4532496123       -7.3068990783
 O        -7.2652048466       -3.5842750722       -6.9678592906
 C        -7.8762988396       -5.8020205307       -6.5362949368
 C        -9.2941234926       -6.0557214416       -5.5598849799
 O       -10.3059714404       -6.4662650930       -6.0736008255
 C        -9.2293591584       -5.6751336103       -4.1266661963
 C       -10.6560467384       -5.6874908061       -3.5389402546
 C       -11.1870784586       -4.2071827399       -3.5632105636
 O       -10.7182444868       -3.4008325882       -4.3963435850
 C       -12.1247456600       -3.7142822786       -2.4671394476
 C       -11.3220407310       -3.2371892283       -1.2838477914
 O       -10.9659741972       -4.1190316856       -0.5318059199
 C       -10.9319573589       -1.7755812871       -1.0345118153
 C       -11.7139952491       -0.9476316224        0.0118420800
 C       -10.8688755443        0.2026489130        0.4586846488
 O        -9.8097163598        0.4344850897       -0.0814811999
 C       -11.3472490101        1.3145444921        1.5458704993
 C       -11.9074440474        0.6680193084        2.8639095997
 O       -12.5443908127       -0.3512523193        2.7931757031
 C       -11.7151064364        1.4610034019        4.0615479680
 C       -10.2738592031        2.3479860310        1.7052742340
 C       -12.5852518023        1.8758273935        0.9051693664
 C       -12.9375982392       -2.6048697551       -3.1097641113
 C       -13.1543187214       -4.8351634809       -2.0442021335
 C        -7.8860882832       -7.0253284748       -7.5218848571
 C        -6.6094013014       -5.9170844011       -5.5967761394
 C       -12.3219134199       -1.1793644700       -9.0251313392
 C       -10.6120705849        0.2078297948      -10.1919873258
 C        -7.5071738520        0.0199065659       -3.8303471675
 C        -7.5609045667        2.4985799520       -3.8888380021
 C        -0.8642219669        0.5918341659       -3.2846334269
 C         0.0886896286        0.7835444958       -5.6673249228
 C        -2.9325027610       -5.3972282743       -7.3260132873
 C        -2.1519470805       -5.4673270885       -9.8020301228
 C        -3.0527432738        1.4323584759      -10.2248635631
 C        -4.5416933293        1.0488563993      -12.3595711044
 C         1.7054059917       -3.0489580125      -13.3996317263
 C         3.5941207656       -1.5407549705      -12.7352717675
 C         4.0929342758        2.3760907684      -17.3297798862
 C         3.3858347309        1.6889395993      -19.5946685755
 C         8.7255837097       -0.2188632278      -22.3801280701
 C         6.6937983484        0.2100753786      -23.8876310425
 C         5.8660661130       -5.5795728128      -19.5167781067
 C         4.6477796493       -6.4096145026      -21.5599546083
 H         1.2417492012       -5.9012264771      -19.7318574159
 H         2.1614225763       -7.3113252011      -19.9011056303
 H         2.1037781604       -6.2572908607      -21.2517130636
 H         4.5248548180       -4.2972789048      -23.1585485410
 H         6.1230769175       -4.3604482851      -22.5228708865
 H         4.8930310120       -1.6762278253      -22.8847021783
 H         6.0358961376       -2.5255937438      -24.0150433068
 H         8.0929147068        1.1607534617      -20.2756027699
 H         7.7520119942       -0.3063530327      -19.5991004810
 H         6.2707473145        2.2391504150      -19.1640496644
 H         7.0060635383        1.1813574019      -18.0199078462
 H         1.1829642110        1.4104899451      -16.6124256188
 H         2.6821024158        1.1683521257      -15.7644751927
 H         0.7009375926       -1.2397251516      -16.5024034901
 H         0.4470051670       -0.2571514980      -15.0765564558
 H         0.0048160682       -1.8497036721      -11.5793847638
 H        -0.6473424731       -1.7177873025      -13.1378242342
 H        -0.9694377180        0.7893213681      -12.7292949452
 H        -0.8643639606        0.1888901856      -10.9370785957
 H        -4.5919546831       -2.1638259483      -11.9738635201
 H        -5.9084301765       -2.3127920480      -10.6680568068
 H        -2.8697466882       -2.7112550211      -10.6973121409
 H        -4.0839760361       -4.0576572432      -10.9376856410
 H        -0.3311864279       -2.9897962878       -6.5688780500
 H        -1.9795392249       -3.4687974128       -6.0764997867
 H        -2.6744919741       -1.1241309709       -6.9474152532
 H        -0.9879394750       -0.8770663135       -7.3267737900
 H        -2.7604774400        2.2834676388       -3.6563206406
 H        -3.5136814482        0.9012798834       -3.4476638809
 H        -4.6106523672        3.0799294161       -5.4148706758
 H        -5.1492637527        2.7978610120       -3.7785647204
 H        -9.2870122813        3.1272289067       -6.1401052461
 H       -10.1257106096        1.5222065405       -5.5905062714
 H        -9.0610403266        1.5774257253       -8.2296373908
 H       -10.5053795807        2.4880598224       -8.1526367808
 H       -11.0687965126       -3.1610368875       -8.1732040322
 H        -9.7419479493       -2.7865732037       -7.0049496725
 H        -8.5646628315       -4.1100734707       -9.3469655764
 H        -9.6433581444       -5.0566158379       -8.5349842134
 H        -8.9035567171       -4.6179955809       -4.1347463784
 H        -8.5770209766       -6.3749404400       -3.5694034553
 H       -10.5770201278       -6.1262351348       -2.5296726357
 H       -11.2418381163       -6.3332931251       -4.1462761741
 H       -11.0961812747       -1.3075044047       -1.9875355600
 H        -9.8768623382       -1.8445843426       -0.7521652245
 H       -11.9911534242       -1.5624750728        0.8604247718
 H       -12.6847902631       -0.7041113612       -0.3795084124
 H       -12.0031705858        1.0333648120        5.0668074598
 H       -12.1861750013        2.4435704171        4.0526746487
 H       -10.6859117974        1.6566774804        4.3575652989
 H       -10.4806284381        3.1424707450        2.5042660366
 H        -9.8223030570        2.8171218962        0.7425978084
 H        -9.3262319005        1.8375573706        2.0735063955
 H       -12.4535582665        2.2007767475       -0.0700586539
 H       -12.8672394730        2.7997425848        1.4704966108
 H       -13.5264953305        1.3198012196        0.9617160341
 H       -13.3446695889       -2.9500671832       -4.0132579730
 H       -12.2123496486       -1.7841401924       -3.2496483728
 H       -13.6675191035       -2.1593647433       -2.3813587559
 H       -13.9089382692       -4.2586804473       -1.4664453230
 H       -12.7596936839       -5.7291971257       -1.6025645108
 H       -13.7884222405       -5.1320574010       -2.8280737217
 H        -8.0155293516       -6.6808097022       -8.5281169640
 H        -8.7344830032       -7.6212762314       -7.2659263949
 H        -7.0229483529       -7.7115331516       -7.4019763107
 H        -6.8845406428       -6.6687980081       -4.8173945885
 H        -6.4129052913       -4.9955563990       -5.0435140588
 H        -5.7528025565       -6.2610760916       -6.0933378170
 H       -12.3341822836       -1.9163187818       -9.9429365209
 H       -13.0387419128       -0.3570606081       -9.2329569935
 H       -12.6980869241       -1.6071439385       -8.0853062891
 H        -9.6718550700        0.8731586020      -10.0772643938
 H       -11.3941450686        0.8550945212      -10.5032793656
 H       -10.4766229723       -0.4446340057      -11.0116855344
 H        -8.6218949287        0.1147164721       -3.6075060111
 H        -6.7837003231        0.0100219937       -2.9746793416
 H        -7.2629441972       -0.7866377173       -4.4850842587
 H        -8.6004358228        2.5307122492       -3.6242434114
 H        -7.2970504349        3.5689486303       -4.1290668099
 H        -7.2452836918        2.2520168295       -2.8493575553
 H        -1.7406888304        0.7178502178       -2.6379207841
 H        -0.0971029291        1.2512583932       -2.9821568210
 H        -0.4801212751       -0.4797914024       -2.9201607811
 H        -0.1584496141        0.8376536168       -6.6715688379
 H         0.8022512558       -0.0232376017       -5.5535500708
 H         0.5308526996        1.7383755335       -5.3775077631
 H        -1.9970174931       -5.9483221772       -7.1240723558
 H        -3.6568760067       -6.2295243203       -7.5377921817
 H        -3.1287080854       -4.7507840841       -6.5083113913
 H        -2.7206802752       -6.3443168288       -9.9195041074
 H        -1.0938143346       -5.6979671570       -9.7206681319
 H        -2.3559402132       -4.9612395602      -10.6689331307
 H        -3.7879677996        2.2291978530      -10.0653101716
 H        -2.1253098437        1.8699883737      -10.6206746752
 H        -2.7379943226        0.9225302165       -9.2660645128
 H        -5.5137912854        1.1906579004      -11.7844699829
 H        -4.6656462103        0.2899492301      -13.1124924406
 H        -4.1182907431        1.9712215116      -12.9309965792
 H         0.7443397529       -3.2705593418      -13.9555658008
 H         1.7505686260       -3.3148854336      -12.3263350115
 H         2.3936007386       -3.6747833337      -13.9582517122
 H         4.2590149064       -2.1613314793      -13.3081382815
 H         3.4736754498       -1.8193763564      -11.6762177620
 H         4.0791179915       -0.6102671734      -12.9362876056
 H         3.1958723088        2.6875784882      -16.8219584377
 H         4.3568138104        3.1644509384      -17.9559014558
 H         4.8436831650        2.1144574839      -16.5622391013
 H         4.1557198258        2.2823791029      -20.1606253377
 H         2.4439355047        2.2875486000      -19.4942403062
 H         2.9705011438        0.9842457965      -20.1890971664
 H         9.3693007454       -0.4913292036      -23.2369095713
 H         9.1198792188       -0.8063895244      -21.5848223988
 H         9.0063016136        0.8354943200      -22.1860380151
 H         7.1004023265        1.2078530457      -24.0081200588
 H         5.5524631964        0.1750669141      -23.8061585664
 H         6.9538449808       -0.3829057705      -24.6810169554
 H         6.8185122113       -5.4548266776      -20.0027851250
 H         5.8680706094       -6.5655252863      -18.9565690958
 H         5.8210853581       -4.6745978470      -18.8617140104
 H         3.9886606765       -6.1062691954      -22.4156417128
 H         4.3083885411       -7.3690516574      -21.1356521281
 H         5.7068780235       -6.5259548655      -21.9513089331
 Na        3.8317816606       -2.7821319399      -17.8741918584
 Na       -6.5109795736       -1.5983992475       -7.6651148982
