232

 C         1.9452702336       -6.3997837668      -20.1058288520
 C         3.2236963680       -5.6488002881      -19.6674170293
 O         3.1921002000       -5.1137986720      -18.5912696514
 C         4.5311199723       -5.5179625552      -20.5612972510
 C         4.7294375974       -4.0623682606      -21.2407633356
 O         4.6282119576       -3.1184469834      -20.4831761718
 C         5.3630975892       -3.8600243355      -22.6738215988
 C         5.7366061504       -2.3610668022      -23.0187268946
 C         6.9373745117       -1.7757792255      -22.1954320034
 O         7.6914716373       -2.3176353481      -21.4545942604
 C         7.1758220910       -0.2465337901      -22.4685937129
 C         6.4123519902        0.4654424656      -21.2193345751
 O         5.2168337501        0.6617097801      -21.3015585986
 C         7.1833532127        0.8148338753      -19.9309131875
 C         6.2836247950        1.2665470057      -18.7297906488
 C         5.1759744885        0.3760071031      -18.3596175266
 O         5.4717353670       -0.7870424097      -18.0584666280
 C         3.7771804840        0.9784177122      -18.3081617523
 C         2.6134579477        0.1910595584      -17.7922080931
 O         2.2429045299       -0.8347817613      -18.4016658748
 C         1.7071141632        0.6387468715      -16.5688786770
 C         1.2363331702       -0.5214503836      -15.6812277580
 C         2.3390784932       -1.3148172706      -15.0146593508
 O         3.3189695761       -1.6935906087      -15.6983343461
 C         2.1253484275       -1.6635893864      -13.4594576981
 C         1.1562558797       -0.6853775321      -12.8530401157
 O         1.5554808321        0.4546125493      -12.7213298068
 C        -0.1967691999       -1.1731928261      -12.3074429201
 C        -1.1402462488       -0.0078498088      -11.8325494371
 C        -2.6040092063       -0.4639662197      -12.0152476014
 O        -2.9068284737       -1.4241678384      -12.7301399748
 C        -3.7196525513        0.3055694139      -11.2522078393
 C        -4.6452988994       -0.6544523222      -10.3022141190
 O        -4.9882606354       -0.2579485285       -9.1821780576
 C        -5.1206918467       -2.0652140553      -10.6471103511
 C        -3.8467051904       -2.9726627530      -10.3069082828
 C        -3.8040820977       -3.3970020635       -8.8161443256
 O        -4.7061806342       -3.0640946388       -8.0648374632
 C        -2.7302989952       -4.3895442816       -8.3892315416
 C        -1.4079730517       -3.5671683907       -8.1185887338
 O        -0.7509585022       -3.2018879871       -9.1123718357
 C        -1.0660690013       -3.0723013942       -6.6635037038
 C        -1.7519304902       -1.7038286560       -6.5294761980
 C        -1.5418926912       -1.1432001070       -5.1765577587
 O        -1.6908255790       -1.8250624626       -4.2004916638
 C        -1.1069994866        0.4645382206       -4.9222235028
 C        -2.3094003828        1.2673267783       -5.3840060691
 O        -2.4292020712        1.5461387205       -6.5775504793
 C        -3.3399750970        1.7726278830       -4.3472392480
 C        -4.6021284816        2.3249848851       -4.9441429027
 C        -5.6249455465        1.1734555246       -5.2635262273
 O        -5.3000465346        0.1682409777       -5.8469946392
 C        -7.1011936533        1.1250803983       -4.6864239625
 C        -7.9717633764        1.0569966010       -6.0581501491
 O        -7.5828094352        0.3234807745       -6.9348150466
 C        -9.3297739172        1.8708314051       -6.0634224947
 C       -10.0539725328        1.6657175948       -7.4448393160
 C       -10.7984510402        0.3193686949       -7.4966109264
 O       -11.5004979197       -0.1072746158       -6.6117544286
 C       -10.7760223901       -0.5766551039       -8.8089910430
 C        -9.6672396846       -1.7252939764       -8.6036919707
 O        -8.5546972232       -1.5819262917       -9.0158801825
 C       -10.1725464123       -3.0067712105       -7.9307818191
 C        -9.2797671819       -4.2427528902       -8.1398044201
 C        -8.0170124901       -4.4562446852       -7.2141961008
 O        -7.2432836067       -3.5122386832       -7.0136448284
 C        -7.8967070250       -5.8253269449       -6.5520541690
 C        -9.1756612076       -5.9898532848       -5.6562909167
 O       -10.2305609832       -6.3457819295       -6.1158628894
 C        -9.1114291952       -5.6695779471       -4.0930574032
 C       -10.5073860879       -5.4706605585       -3.3225357324
 C       -11.0999024279       -4.1528670512       -3.6444195798
 O       -10.8183473238       -3.4652636837       -4.5820014904
 C       -12.2601757272       -3.6142556368       -2.5037515261
 C       -11.3656111037       -3.2245563512       -1.2516935065
 O       -10.9283460599       -4.1338586447       -0.5630752990
 C       -10.9091463917       -1.7649506975       -1.0639522591
 C       -11.5693465423       -1.0400839656        0.1565467280
 C       -10.8498102324        0.2775813822        0.4221392852
 O        -9.7659001586        0.4369221536       -0.0816538124
 C       -11.4466216919        1.3487197358        1.4077244463
 C       -11.9314128073        0.6570882104        2.7913260710
 O       -12.4024748439       -0.4554457297        2.8839886667
 C       -11.5475953974        1.2828822491        4.1247225648
 C       -10.4698481884        2.4395807077        1.6504938622
 C       -12.7959942251        1.9320465764        0.8699898016
 C       -13.0112784481       -2.4481489782       -3.2163368065
 C       -13.1863073125       -4.7532002953       -2.0781779803
 C        -7.9584044007       -7.0185064291       -7.5791516324
 C        -6.5118526925       -5.7997358028       -5.7495571205
 C       -12.1732545582       -1.2237019750       -8.8638505841
 C       -10.5598467704        0.2192447045      -10.1188813839
 C        -7.2728723201       -0.2026427026       -3.8918773089
 C        -7.6321429470        2.3090766021       -3.8639913661
 C        -0.6527157066        0.5509388548       -3.4313267621
 C         0.2604474908        0.7903422514       -5.7094065655
 C        -3.2201534535       -5.2386374034       -7.1402320308
 C        -2.2232687145       -5.4496802485       -9.4366203742
 C        -3.2871206440        1.4300369651      -10.1850425455
 C        -4.8383938346        1.0044689548      -12.2195795085
 C         1.7152777460       -3.2195493702      -13.3406763378
 C         3.4883117865       -1.4246869074      -12.7086832452
 C         3.9677464240        2.3191178476      -17.3764557082
 C         3.1578004307        1.4248307714      -19.6386766833
 C         8.7291238951        0.0046374205      -22.3326067251
 C         6.6570179497        0.2655481344      -23.8573474712
 C         5.7656196209       -5.7314393768      -19.6995143406
 C         4.5878966128       -6.6881256414      -21.6602506092
 H         1.0952707598       -5.6824825936      -20.1725981770
 H         1.6612233321       -7.1943976845      -19.3685250265
 H         1.9724688547       -6.8897151797      -21.0979817527
 H         4.7745154509       -4.2279494843      -23.5235661794
 H         6.3065204150       -4.4715811753      -22.6449896633
 H         4.7853469373       -1.8297464437      -22.9711187916
 H         6.0507387633       -2.3557808035      -24.0393284016
 H         8.0818464978        1.4515757763      -20.0723267005
 H         7.6103059070       -0.0489119302      -19.4841287935
 H         6.0546387715        2.2965372262      -18.9460372305
 H         7.0728330342        1.2425835343      -17.9572462201
 H         0.7772811832        1.1485735935      -16.8729269494
 H         2.2729051110        1.3675227963      -15.9966419691
 H         0.6579462595       -1.1101849844      -16.3889534029
 H         0.4733970553       -0.0478345433      -15.0519041063
 H        -0.1123727386       -1.9405761014      -11.4874164732
 H        -0.8432360791       -1.7579013674      -13.0551577256
 H        -0.9610982318        0.8042649885      -12.4730702903
 H        -0.8650281676        0.1609328628      -10.8088197284
 H        -5.3720543078       -2.1528883454      -11.7190227857
 H        -5.9044937588       -2.3979559700       -9.9730905464
 H        -2.9072036942       -2.4682487779      -10.5357647542
 H        -3.9036035338       -3.9515138199      -10.8228460062
 H         0.0261075461       -2.9923918598       -6.4054814162
 H        -1.5902552045       -3.7541971275       -5.9506252691
 H        -2.8136491973       -1.7685506636       -6.8142055460
 H        -1.2719279002       -0.9985331162       -7.1892880820
 H        -2.7992008675        2.6264063963       -3.8221129959
 H        -3.3940105223        1.1211769468       -3.4898961425
 H        -4.4575212870        2.7781659585       -5.9603781951
 H        -5.1483231624        3.0324695753       -4.2906193857
 H        -9.0039045082        2.9635244576       -5.9580781594
 H       -10.0666774921        1.4828429198       -5.3895158279
 H        -9.3923833336        1.6623033368       -8.3359317842
 H       -10.7973039519        2.5039237784       -7.5521835298
 H       -11.1198659812       -3.0606100303       -8.3565230586
 H       -10.1972417149       -2.8090642877       -6.8163023549
 H        -8.7934823283       -4.2194580441       -9.1781851506
 H        -9.9409796437       -5.1631398055       -8.3221409903
 H        -8.6784469296       -4.6835719259       -3.9225823970
 H        -8.4847798586       -6.4189712071       -3.6252405753
 H       -10.3287760137       -5.4941662350       -2.2484399832
 H       -11.2830647129       -6.2684199303       -3.5526354289
 H       -11.1638506178       -1.2524882246       -1.9885469296
 H        -9.8538399572       -1.8464451884       -0.9186611821
 H       -11.7322669186       -1.7193366061        1.0230704199
 H       -12.6395951881       -0.8129070087       -0.1148650346
 H       -11.8237243814        0.6461808639        4.9030494331
 H       -11.8836298806        2.2911726170        4.4242089867
 H       -10.4656676985        1.3900747631        4.3500434594
 H       -10.9990283100        3.2010301875        2.1654886090
 H       -10.0829185049        2.7644072956        0.7544968735
 H        -9.5573836855        2.2513298187        2.1853945981
 H       -12.7093222167        2.5600120791       -0.0787591322
 H       -13.2968017577        2.5663923798        1.5517226612
 H       -13.5537643014        1.1733162116        0.7425070587
 H       -13.9634059903       -2.9338895094       -3.5465300221
 H       -12.4595121446       -1.8932246434       -3.8996507320
 H       -13.4507832185       -1.8027629383       -2.4870541092
 H       -13.8533364762       -4.4617663247       -1.3049098887
 H       -12.5653693984       -5.5801460704       -1.7935739254
 H       -13.7608788784       -5.0667384927       -2.9556209796
 H        -8.5304224295       -6.7580965333       -8.5039962904
 H        -8.4466370517       -7.8665172670       -7.0868564408
 H        -6.9536083759       -7.3542261412       -7.7961896344
 H        -5.6935415569       -6.3363774281       -6.2205854567
 H        -6.6874084959       -6.2385245307       -4.7691212926
 H        -6.1373980859       -4.7224387503       -5.6444223657
 H       -12.2349903129       -1.9845036336       -9.5414759341
 H       -12.9473458677       -0.5113577239       -9.0838327068
 H       -12.4030706123       -1.5742060738       -7.8593756661
 H        -9.5433227720        0.4076134669      -10.3334475333
 H       -10.9956255580        1.2367538838      -10.0978213272
 H       -11.0781142049       -0.2955686428      -10.9757083078
 H        -8.1976881200       -0.1244716520       -3.4995693695
 H        -6.5745944802       -0.0638384308       -3.1213419197
 H        -6.9897659449       -1.1238693301       -4.4546426095
 H        -8.5571976360        2.1259005485       -3.2941103067
 H        -7.7906840456        3.1530127537       -4.5077138285
 H        -7.0656943549        2.6761089570       -3.0508601869
 H        -1.4159010747        0.2630090265       -2.7221213145
 H        -0.3740203031        1.6284073928       -3.2231279665
 H         0.2666396179        0.0314584165       -3.2404462026
 H         0.0858846844        1.0173994589       -6.7992900952
 H         0.9794472833       -0.0459729463       -5.5686017970
 H         0.7358367090        1.6684495307       -5.3097359689
 H        -2.4333431486       -5.6093926060       -6.4736327224
 H        -3.6169087101       -6.1497711781       -7.5210273899
 H        -3.8504462971       -4.5310393479       -6.5941727418
 H        -3.0872831007       -6.0420301330       -9.9009471967
 H        -1.4847615813       -6.0262393780       -8.9130266183
 H        -1.8508648213       -5.0239516983      -10.4087792783
 H        -4.1779070552        1.9894148767       -9.9997927936
 H        -2.4265797844        2.0886198664      -10.3697217068
 H        -3.1140883368        0.8938656341       -9.2305138073
 H        -5.7093979526        1.1314989599      -11.6532989736
 H        -5.0512380699        0.4428983006      -13.1685483729
 H        -4.3639728263        1.8574135464      -12.5223006562
 H         1.3268587892       -3.5137737516      -14.2499456259
 H         1.1343379339       -3.4069260271      -12.4913813952
 H         2.6094067031       -3.8250473090      -13.3309178488
 H         4.3884717278       -1.6645996558      -13.2768876265
 H         3.3851131547       -2.0102263849      -11.8452475611
 H         3.5577511176       -0.3634698680      -12.4340165973
 H         3.0784920888        2.9245598590      -17.6147515002
 H         4.8584889946        2.9547629180      -17.7560482310
 H         4.0074979699        2.1771946439      -16.3034765863
 H         3.8402774799        2.1370681024      -20.1090625205
 H         2.1491014146        1.7503596312      -19.5529254582
 H         2.8834366438        0.6088621990      -20.3929574174
 H         9.2959116757       -0.7166860956      -23.0177541422
 H         9.2456040259       -0.1497867682      -21.3703925591
 H         9.0356726201        1.0072107946      -22.6483991234
 H         7.4851524626        0.9682258613      -24.1137270043
 H         5.7071729346        0.6713342002      -23.8383256081
 H         6.8015611331       -0.4266605216      -24.7889922285
 H         6.7176705886       -5.8092097026      -20.3052087738
 H         5.7244354962       -6.7767515668      -19.4902089410
 H         5.8883077373       -5.0963916273      -18.8765134947
 H         3.6001786291       -6.9415991544      -21.9191415062
 H         5.0578820065       -7.5487692407      -21.2420095593
 H         5.1583841356       -6.4348679532      -22.5105136062
 Na        4.0275722465       -2.6638283592      -18.1289250366
 Na       -6.3761261342       -1.3790208107       -7.8566058472
