232

 C         2.0401880210       -6.3133600021      -19.9959655179
 C         3.3212609076       -5.5305561706      -19.7734407468
 O         3.4003293458       -4.8546040965      -18.7334587481
 C         4.5783416996       -5.5888955682      -20.7052774765
 C         4.8259425332       -4.1447194955      -21.2336891087
 O         4.3815062325       -3.2247979371      -20.5781327158
 C         5.5656084035       -3.9052525724      -22.4938591302
 C         5.6015375347       -2.4036486295      -22.8351507626
 C         6.9004970989       -1.6859736824      -22.2081260296
 O         7.5383397452       -2.3048403356      -21.3496950357
 C         7.3250169424       -0.1369637562      -22.3999012912
 C         6.5220723446        0.5516151301      -21.2055774586
 O         5.3758065171        0.9299693476      -21.3490948963
 C         7.1522834147        0.6577679417      -19.8812789239
 C         6.1835782951        1.4254568117      -18.8950809360
 C         5.0507432001        0.4802492690      -18.4669256934
 O         5.2920291646       -0.6666336358      -18.1800682595
 C         3.6125313170        1.1272920773      -18.3102905149
 C         2.5381322315       -0.0071649034      -17.8488892195
 O         2.4409004779       -1.0850850189      -18.3327814374
 C         1.4947795414        0.4063752897      -16.7237077529
 C         1.0763430236       -0.8423852393      -15.8020054059
 C         2.2952553078       -1.3475277080      -15.0449442432
 O         3.2668247181       -1.6057876645      -15.6876260370
 C         2.2170848735       -1.7200616118      -13.4539282633
 C         1.1151451014       -0.7155909834      -12.6749967182
 O         1.4089012829        0.4864026653      -12.6801804344
 C        -0.3028810454       -1.2614005411      -12.2315671873
 C        -1.1320363225       -0.1749869779      -11.6348933173
 C        -2.6193665325       -0.5549379669      -11.7763456025
 O        -3.0925145635       -1.3553848853      -12.5508966616
 C        -3.6965340830        0.3906576230      -11.1183701052
 C        -4.5579032896       -0.5157907590      -10.0771788126
 O        -5.1929065420       -0.0183482832       -9.1767281462
 C        -4.8664144938       -1.9772066641      -10.6222828907
 C        -3.9558327766       -3.1291626057      -10.3593971999
 C        -3.8265713814       -3.4694934114       -8.8674904717
 O        -4.6114564619       -2.9885155449       -8.0519729224
 C        -2.7650181844       -4.5147405777       -8.2395989741
 C        -1.3595665026       -3.6302984645       -8.1174401819
 O        -0.7504207895       -3.4173671713       -9.0981864707
 C        -0.9383889235       -3.0308319392       -6.6906534155
 C        -1.6974189432       -1.6959494951       -6.4490632374
 C        -1.5114307456       -1.0249509062       -5.0215983384
 O        -1.7107350581       -1.7667408779       -4.0428908294
 C        -1.0831847641        0.4761774904       -4.9578764323
 C        -2.1781478410        1.4018350236       -5.4418576133
 O        -2.1323588316        1.9049514456       -6.5382389343
 C        -3.2989632648        1.8431228303       -4.4338162895
 C        -4.5612893626        2.1629204837       -5.1929189948
 C        -5.4810526794        0.9031547202       -5.4377780009
 O        -5.0426545481       -0.0722240805       -6.0370671998
 C        -6.9296678820        0.9092742590       -4.8025293776
 C        -8.0339344985        0.8912641598       -5.9946754091
 O        -7.8879244375        0.2245628560       -6.9822472069
 C        -9.3534968547        1.7478962299       -5.9685555318
 C       -10.0710154206        1.5101422127       -7.3447299258
 C       -10.7944954182        0.1241220273       -7.3844457771
 O       -11.3865921932       -0.1369004582       -6.3648529681
 C       -10.8088203945       -0.7039803215       -8.7215827734
 C        -9.8176987081       -1.7927889565       -8.4473473674
 O        -8.6548340557       -1.6157395905       -8.8347921439
 C       -10.2051007407       -3.1070296626       -7.6178226991
 C        -9.3119808838       -4.2753071466       -8.0240624797
 C        -8.1659423338       -4.3454263774       -7.1184875033
 O        -7.3516061170       -3.4568691441       -6.9349172931
 C        -7.9020890470       -5.7480502546       -6.5004596015
 C        -9.1596547249       -5.8490177983       -5.5128031242
 O       -10.2121644415       -6.2017307021       -5.9999607978
 C        -9.0087273257       -5.5807135090       -4.0617975510
 C       -10.3041950500       -5.3549152270       -3.3282539755
 C       -11.1115065666       -4.0483996750       -3.7013051556
 O       -10.8791012554       -3.4370155438       -4.7511710355
 C       -12.2637276848       -3.5887858623       -2.6179005216
 C       -11.3729753919       -3.1825663295       -1.3118511085
 O       -10.9696419323       -4.0083843007       -0.5526582762
 C       -10.8527866955       -1.6698864950       -1.1696848376
 C       -11.4048503521       -1.1206632911        0.1206179009
 C       -10.8615679168        0.2391875869        0.4836963261
 O        -9.8074255412        0.6705952927        0.0147897450
 C       -11.6086683347        1.2633403219        1.3903335090
 C       -11.8117634874        0.5577608468        2.7277101040
 O       -12.2883930718       -0.5655376435        2.7720068159
 C       -11.3794137021        1.1518949133        4.0298824417
 C       -10.6503392081        2.5921186340        1.6018593981
 C       -12.9086675558        1.6837817881        0.8430467816
 C       -13.0540593193       -2.3032460065       -3.1122945912
 C       -13.1458021620       -4.7974703603       -2.2778665467
 C        -7.8934582116       -6.7581620456       -7.6285467097
 C        -6.6311285852       -5.8956323126       -5.7627193381
 C       -12.2904989930       -1.2084607098       -8.9997323387
 C       -10.2600402002        0.1505552176       -9.9161592719
 C        -7.2130913845       -0.5024351573       -4.0337100413
 C        -7.0877223984        2.1057158970       -3.8736294559
 C        -0.6742246856        0.8026759487       -3.4628871387
 C         0.1027078641        0.6456268329       -6.0704116579
 C        -3.2548111795       -4.9780042239       -6.8796160186
 C        -2.5425130096       -5.6726743951       -9.2877214534
 C        -3.2080862619        1.6971345229      -10.4827200743
 C        -4.8245173176        0.7205117660      -12.2485919990
 C         1.8262357164       -3.1772046896      -13.5060388245
 C         3.6625638772       -1.5600118620      -12.8881970094
 C         3.6458042901        2.3830244830      -17.4326578339
 C         3.1786409945        1.5334422615      -19.7250243256
 C         8.8205377229        0.2424889654      -22.4579891412
 C         6.5958087539        0.5000878102      -23.5848235000
 C         5.7691333152       -5.9674882117      -19.7043899440
 C         4.4425360367       -6.6459726179      -21.8508377183
 H         1.2806138221       -5.6831630354      -20.4106551339
 H         1.6849069864       -6.7333117884      -19.0643380980
 H         2.1105868020       -7.1501957956      -20.6877690270
 H         5.0991961700       -4.4279256706      -23.3597720518
 H         6.5820947981       -4.2999053562      -22.4505850738
 H         4.6947086937       -2.0047905096      -22.3439255504
 H         5.4304793064       -2.3307891545      -23.9703459986
 H         8.1000014667        1.1835965207      -20.0413206361
 H         7.4335955304       -0.3756172950      -19.4877816114
 H         5.9322639872        2.2251103571      -19.5636037147
 H         6.7383246770        1.7772985433      -18.0442209325
 H         0.7781511535        0.8940549137      -17.4000493572
 H         1.8294457043        1.1958381475      -16.0298258896
 H         0.7052930177       -1.6496207555      -16.4342892776
 H         0.2783757679       -0.4999968362      -15.1590939654
 H        -0.2513408709       -2.0875655268      -11.5824022222
 H        -0.9192662165       -1.6227445719      -12.9917555327
 H        -1.0173072222        0.7356857029      -12.3181319297
 H        -0.8080961432        0.0890918021      -10.6248122646
 H        -4.9001276798       -1.8116933483      -11.6602363813
 H        -5.8015924957       -2.3710538616      -10.2448793864
 H        -2.9286852655       -2.9638364586      -10.6754942149
 H        -4.3158446395       -4.0280283477      -10.8159788603
 H         0.1137542517       -2.8397439664       -6.7854361363
 H        -1.0620014628       -3.7557250002       -5.8964540412
 H        -2.7482297585       -2.0191698389       -6.4175694007
 H        -1.5155906323       -1.0281873081       -7.3122336117
 H        -3.0356758645        2.7941280457       -3.9740039867
 H        -3.2822694817        1.1551811148       -3.5638190598
 H        -4.3264133258        2.5550648605       -6.1599147901
 H        -5.1478903392        2.8757455544       -4.6588720124
 H        -9.1105333175        2.7673141232       -5.8862729452
 H       -10.0204262422        1.3733738619       -5.1267658319
 H        -9.3187892729        1.5691545417       -8.1281103175
 H       -10.7497906481        2.3358865278       -7.4557954294
 H       -11.2792096393       -3.2825852429       -7.8759340639
 H       -10.0228755795       -2.8249358053       -6.6215245971
 H        -9.0349821550       -4.2621730111       -9.0462400359
 H        -9.8527430976       -5.1568970227       -8.0491366041
 H        -8.3212944804       -4.7219906541       -3.8133074488
 H        -8.4707573191       -6.5108143606       -3.6700319476
 H       -10.0344111500       -5.2214067430       -2.2638318123
 H       -10.8454752469       -6.2672769735       -3.3772294577
 H       -11.1863981630       -1.0016503327       -2.0004971855
 H        -9.7120340329       -1.6719109476       -1.1422442502
 H       -11.2385402752       -1.7614614090        0.9768104468
 H       -12.4688675068       -1.1079757599        0.0820095712
 H       -11.8080943720        0.6410372774        4.9260948336
 H       -11.4091767469        2.2000413828        4.2166505324
 H       -10.3256369182        1.0496193515        4.1584444724
 H       -11.1298149243        3.3082729533        2.2706462209
 H       -10.4697901664        3.0394929004        0.6042656553
 H        -9.6785643428        2.2934616063        1.9448898391
 H       -12.7281625295        2.2338845635       -0.0238465596
 H       -13.4929735643        2.3911046180        1.5009613979
 H       -13.6322063055        0.8981789411        0.6435300939
 H       -13.9657438441       -2.5951625967       -3.5983812460
 H       -12.3122198733       -1.7593194475       -3.8243925662
 H       -13.5528344557       -1.6417116536       -2.3762794082
 H       -14.0695392616       -4.3404661344       -1.7851592761
 H       -12.6893945579       -5.5362446974       -1.5167551462
 H       -13.3967900170       -5.3452453820       -3.2452928325
 H        -8.9115803007       -6.9931135016       -7.7783870441
 H        -7.4077923279       -7.7186126816       -7.3386514492
 H        -7.4209741831       -6.4398647241       -8.5621304951
 H        -6.0279706195       -4.9595048614       -5.8499934735
 H        -6.0347455014       -6.7829017467       -6.0199602893
 H        -6.7988799150       -5.9228461957       -4.7277720452
 H       -12.2512289354       -1.9691032453       -9.8583782645
 H       -12.9491835128       -0.4024924615       -9.3105797068
 H       -12.7118522505       -1.7819814518       -8.1762098985
 H        -9.1593702266        0.1171084653       -9.9450296606
 H       -10.4165513891        1.2246029513       -9.8640307788
 H       -10.6836016606       -0.2252122920      -10.8185736647
 H        -8.3792547957       -0.5960296163       -3.9294052355
 H        -6.7978265297       -0.5205138758       -2.9707442941
 H        -6.7562821719       -1.1751821179       -4.7071679868
 H        -8.0711554154        2.2177870711       -3.4730495391
 H        -6.8536905556        3.0601355331       -4.2696656271
 H        -6.4356317379        2.0263443903       -2.9681715742
 H        -1.2344264552        0.0426415091       -2.9288176666
 H        -1.0560249831        1.7431827712       -3.0305166497
 H         0.3589407605        0.7746503487       -3.2809378101
 H        -0.3429190076        0.5240922877       -7.0416184219
 H         0.9594329090        0.0306443710       -5.8623076555
 H         0.5064062295        1.7011868744       -6.0664466287
 H        -2.5141935452       -5.6191041641       -6.5199027555
 H        -4.1116651853       -5.6210153355       -6.9728117286
 H        -3.3383566318       -4.0793070302       -6.2678860763
 H        -3.1763781283       -5.6672431337      -10.1124619483
 H        -2.4869147157       -6.6224125997       -8.6928577603
 H        -1.5752876443       -5.5810322407       -9.7751222439
 H        -3.6867987739        1.8952816853       -9.4745716907
 H        -3.4994368104        2.4811561104      -11.1537303812
 H        -2.2032594603        1.7689666497      -10.3123234028
 H        -5.6226670975        1.3138783192      -11.7595030363
 H        -5.3737842825       -0.1776870198      -12.3693868364
 H        -4.3493284183        1.0745996560      -13.2063851797
 H         0.7469522091       -3.2277438121      -13.8710879506
 H         1.9234697748       -3.5190204223      -12.4467676355
 H         2.4235260844       -3.7574911240      -14.1990112796
 H         4.2215986709       -2.1809132739      -13.6285906536
 H         3.8826787990       -1.9644673892      -11.8409827218
 H         3.9661258061       -0.4930011144      -13.0129219827
 H         2.6624582300        2.8430901387      -17.3630963763
 H         4.3611534127        3.0605067779      -17.7185668546
 H         3.9335526771        2.0184277194      -16.4259412467
 H         3.7164261645        2.2540148520      -20.2269224680
 H         2.0995898303        1.6798322370      -19.6791097840
 H         3.1192085232        0.6614189598      -20.3748472775
 H         9.2443897560        0.2492609941      -23.3561889753
 H         9.5623694282       -0.2282548807      -21.8070072758
 H         8.7793591625        1.2550367016      -22.0980097513
 H         6.5157852774        1.5683237912      -23.5009049810
 H         5.6080191173       -0.0445025011      -23.5758053721
 H         7.1035323350        0.4481162527      -24.4785084674
 H         6.7240812046       -5.9786484567      -20.1205389011
 H         5.8098850494       -6.9567328369      -19.2512177508
 H         5.5769445004       -5.1089926203      -18.9788680954
 H         3.8429961606       -6.2955327495      -22.7125928920
 H         3.9277825922       -7.5314183405      -21.4318045030
 H         5.4711872541       -6.9758677838      -22.0458785398
 Na        3.9424845553       -2.5542144069      -18.5034664911
 Na       -6.3775862407       -1.2877269273       -7.6926928027
