232

 C         2.0864133201       -6.2871013196      -19.9932567129
 C         3.3758553641       -5.5121391696      -19.6759250513
 O         3.3393685151       -4.6637118073      -18.8272101944
 C         4.6159511412       -5.5867450516      -20.5906927674
 C         4.8119576354       -4.0924481990      -21.2216230719
 O         4.2902355326       -3.1467752107      -20.6616690884
 C         5.6854751171       -3.8257016520      -22.4413398004
 C         5.7415672940       -2.2887334330      -22.8507053897
 C         6.9257494242       -1.6437871562      -22.1427657342
 O         7.5961989256       -2.2297044579      -21.3377492840
 C         7.1624421238       -0.1275920547      -22.4244247733
 C         6.5391926461        0.5173244062      -21.1106715223
 O         5.4846842029        1.0197711128      -21.3978821669
 C         7.0929577134        0.6553994767      -19.6350832021
 C         6.0648186924        1.4947332064      -18.7839649155
 C         4.9188420577        0.5336473462      -18.4501056857
 O         5.2265363347       -0.6543001479      -18.3227732345
 C         3.4501412518        1.0547789679      -18.2600290099
 C         2.4856409264        0.0482562773      -17.7871018157
 O         2.5230327080       -1.0855210812      -18.3107201125
 C         1.4107707051        0.3613375134      -16.7374230593
 C         1.0584851251       -0.9572938995      -15.9021270432
 C         2.2353647312       -1.3247019855      -15.1364416309
 O         3.3480520287       -1.5999842490      -15.6615012809
 C         2.2059674684       -1.7072097864      -13.5724252777
 C         1.1794975294       -0.7901301067      -12.8089424048
 O         1.3116706793        0.3999075685      -12.6256135800
 C        -0.1394965177       -1.3954610743      -12.3056929218
 C        -1.1052532037       -0.3086874059      -11.6088654641
 C        -2.6033887941       -0.4514372708      -11.8719738870
 O        -2.9079957052       -1.3971087931      -12.5490718467
 C        -3.7540004721        0.4206924559      -11.1078393634
 C        -4.5387289464       -0.4758462024      -10.1731770202
 O        -5.1384678208        0.0109810401       -9.2036359192
 C        -4.9265558444       -1.9474893747      -10.5244375334
 C        -3.9204893283       -3.0947644462      -10.2281691369
 C        -3.7892877712       -3.4468172060       -8.7198869793
 O        -4.5728468117       -2.8692350769       -7.9623074976
 C        -2.7222958058       -4.4826658396       -8.1659145218
 C        -1.4293615253       -3.6410312034       -8.1332398519
 O        -0.7482580680       -3.5089183932       -9.1610643294
 C        -1.0748115480       -2.9935667096       -6.7631098826
 C        -1.8529781291       -1.6883666376       -6.4982883019
 C        -1.5253992857       -1.1100828872       -5.1050873032
 O        -1.6989133869       -1.6446050557       -4.0078785860
 C        -1.0416250675        0.4017234265       -5.0068479037
 C        -2.0985841073        1.4444472629       -5.4638680836
 O        -2.0048664840        1.9928987022       -6.5500714926
 C        -3.3130483497        1.7195372294       -4.5384497971
 C        -4.5495382740        2.0966034320       -5.3720271708
 C        -5.4636286232        0.8197761237       -5.4684851782
 O        -4.9768511220       -0.1142796750       -6.0820808159
 C        -6.9362685174        0.7556862548       -4.8660505676
 C        -7.9916389767        0.8751552939       -5.9751519511
 O        -7.8822300318        0.1293208584       -6.8947188327
 C        -9.3461527567        1.7350361852       -5.8793872171
 C       -10.1005461541        1.6873783350       -7.2414366492
 C       -10.8600540365        0.1959881132       -7.3458552382
 O       -11.3101984834       -0.3401983808       -6.3680628060
 C       -10.8384780614       -0.5978154693       -8.6745191454
 C        -9.8634617108       -1.7561517048       -8.4013375567
 O        -8.7005126104       -1.7609034097       -8.7487865900
 C       -10.2864413868       -3.0437894420       -7.5868962002
 C        -9.3608760650       -4.2217942587       -8.0402811325
 C        -8.0696987043       -4.3577381273       -7.1331549871
 O        -7.3468720108       -3.4333938858       -6.7820568345
 C        -7.8689977544       -5.7799028846       -6.4503708028
 C        -9.1516254399       -5.8976929085       -5.5267550056
 O       -10.2565271544       -6.2011236143       -5.9247332583
 C        -8.9693432629       -5.4623140795       -3.9655291982
 C       -10.3661748026       -5.2371865892       -3.3251373152
 C       -11.0734858772       -4.0146896917       -3.6759267395
 O       -10.8923616900       -3.4237130116       -4.7212725897
 C       -12.1088361745       -3.5154775572       -2.6717777678
 C       -11.3254129035       -3.1524757797       -1.3660564560
 O       -11.0001532191       -3.9548408812       -0.5222336567
 C       -10.9070388905       -1.6765310033       -1.1509968250
 C       -11.3804565261       -1.0019874200        0.1750009874
 C       -10.7456771429        0.3765562117        0.3770884616
 O        -9.6685078280        0.6706523227       -0.1168008591
 C       -11.6208751661        1.2659713447        1.3686224360
 C       -11.7750989710        0.4542671037        2.7610680223
 O       -12.3111423157       -0.6441204198        2.7200853370
 C       -11.2903969564        1.1314160997        4.0560523590
 C       -10.7878332224        2.5186641368        1.6056692846
 C       -13.0740603765        1.5025264476        0.8369515875
 C       -12.9997870352       -2.4214149644       -3.2026809170
 C       -13.0896885803       -4.6958629595       -2.3229485641
 C        -8.0794392677       -6.8030736259       -7.7082789428
 C        -6.5380368307       -5.7772523649       -5.5579122776
 C       -12.2540566749       -1.1607951832       -9.0041743665
 C       -10.2795897038        0.1963273965       -9.8340159565
 C        -7.1598328943       -0.6150998007       -4.2139158257
 C        -7.0698126410        1.9154421222       -3.8776576199
 C        -0.5552445820        0.9531557638       -3.5789110436
 C         0.1368941567        0.5982479489       -5.9850209310
 C        -3.1180358737       -4.9495871128       -6.7839749134
 C        -2.6458135186       -5.7080890650       -9.1170677301
 C        -3.2685323190        1.8227594453      -10.5623837050
 C        -4.7326717479        0.7122003331      -12.2479753334
 C         1.6605400356       -3.1795943078      -13.4440704394
 C         3.6073064470       -1.4871295578      -12.9609332274
 C         3.4959481785        2.3366596884      -17.4133060268
 C         3.0422180822        1.5673813393      -19.8002444546
 C         8.7087829899        0.1089559778      -22.4850092267
 C         6.5283368523        0.4563483778      -23.8231171482
 C         5.8767375844       -6.0989268512      -19.8646996450
 C         4.4676174134       -6.5766742577      -21.8589741094
 H         1.4898823674       -5.7202332475      -20.6186455731
 H         1.6052498110       -6.4309735946      -19.0275929791
 H         2.1121960151       -7.2607052339      -20.4351544920
 H         5.3954067707       -4.4173013795      -23.2848687024
 H         6.7125179454       -4.0701485884      -22.2703965015
 H         4.8607293484       -1.7896346922      -22.5471456894
 H         5.7582085379       -2.2635959488      -23.9839492263
 H         8.1360355710        1.0509487492      -19.6305269273
 H         7.1183393647       -0.3454257429      -19.2386875372
 H         5.9522377364        2.3701352775      -19.3932646135
 H         6.5346149154        1.6993164050      -17.7923944067
 H         0.7154128313        0.6590072679      -17.5315902793
 H         1.5488953393        1.2107595734      -16.0788643250
 H         0.7597600796       -1.7390528201      -16.6065646580
 H         0.2290016947       -0.7198673628      -15.1774939408
 H         0.0594387867       -2.1671832561      -11.5845081437
 H        -0.8182714865       -1.8967338913      -13.0268809737
 H        -0.6822302361        0.7229923882      -11.9158393449
 H        -0.9868986012       -0.4003359305      -10.4975737783
 H        -5.1992340801       -1.9388452290      -11.6010008846
 H        -5.8105956108       -2.2610554937       -9.8863869025
 H        -2.9123210570       -2.9204533823      -10.6796966067
 H        -4.2841954659       -4.0696261862      -10.6577551382
 H        -0.0338234136       -2.7188366773       -6.9085922048
 H        -1.0617226569       -3.6722958584       -5.9342407217
 H        -2.9683179107       -1.9719667770       -6.4557942564
 H        -1.6443905464       -0.9702629835       -7.2326959357
 H        -3.1034151516        2.6541495941       -3.9548065278
 H        -3.3152973212        0.9460982362       -3.8649228696
 H        -4.2574789498        2.2938552383       -6.3595537135
 H        -5.1275755473        2.9403980178       -4.9756583186
 H        -9.1370129594        2.7772355819       -5.6697052492
 H        -9.8640585668        1.2418116281       -4.9805038451
 H        -9.3465327639        1.8496208768       -7.9995350138
 H       -10.8005938426        2.5028708912       -7.2598695458
 H       -11.3121270638       -3.2512738487       -7.8129958940
 H       -10.1248663486       -2.6466294007       -6.5846030363
 H        -9.1096068259       -4.0839495975       -9.0607190738
 H        -9.8811172248       -5.1327794542       -8.1603690687
 H        -8.4383436175       -4.5101503080       -3.9395549644
 H        -8.3292904207       -6.1342660970       -3.3413782450
 H       -10.4110959124       -5.3780631880       -2.2493923581
 H       -10.9123223717       -6.0978506686       -3.7400482008
 H       -11.1714081066       -1.0062467644       -1.9607162747
 H        -9.7882721839       -1.6616860929       -1.1230646053
 H       -11.1482005315       -1.5427329120        1.0854588259
 H       -12.4738534880       -0.9464390334        0.2210964645
 H       -11.6681925553        0.6951759262        4.9568339567
 H       -11.2968128698        2.2436675775        4.2343238498
 H       -10.1760859671        1.0770709075        4.1394456073
 H       -11.3174955103        3.2680882368        2.3224409330
 H       -10.6356479470        3.0079294748        0.5891975321
 H        -9.7173305263        2.2033775276        1.9756986814
 H       -13.1384271972        1.8311275642       -0.2263746556
 H       -13.7573077411        2.1387889443        1.3747794820
 H       -13.5147823565        0.5350380606        0.8728154916
 H       -13.6687134487       -2.9086227208       -3.9897353912
 H       -12.3633110015       -1.6911411218       -3.6948504127
 H       -13.7509448553       -2.0516519110       -2.5977642868
 H       -13.9655774776       -4.3124405223       -1.8724317543
 H       -12.6199962420       -5.3140498052       -1.5418455531
 H       -13.2575576781       -5.3335233095       -3.2311241923
 H        -9.0587741092       -7.2578742167       -7.6918015557
 H        -7.2948544350       -7.6164309823       -7.7307839855
 H        -7.9459765995       -6.2847663745       -8.6207542997
 H        -6.5156567724       -4.8171183358       -5.0565784631
 H        -5.6721073044       -5.8950438498       -6.1501652351
 H        -6.4903074248       -6.5271280702       -4.7611576582
 H       -12.2197636837       -1.9332336575       -9.7663582746
 H       -12.9525577534       -0.3350337924       -9.3913716478
 H       -12.6988230998       -1.7173223075       -8.0927538938
 H        -9.3492638875        0.5065741122       -9.5934993490
 H       -10.7999057332        1.1590248293      -10.0647852995
 H       -10.2530951336       -0.4739226932      -10.7201626977
 H        -8.2096298896       -0.6244006127       -3.9359376376
 H        -6.5974271477       -0.5970957506       -3.2487036570
 H        -6.8146518245       -1.4001012748       -4.9777741114
 H        -8.0068068391        2.0365931323       -3.2223737840
 H        -7.0165859245        2.8616634991       -4.3921125537
 H        -6.1884559061        2.0156214638       -3.1894007698
 H        -1.1279681893        0.4613921237       -2.7328469990
 H        -0.9050247440        2.0784091614       -3.5022784303
 H         0.4862226733        0.9755874550       -3.4690374527
 H        -0.2540527222        0.3456454272       -6.9789506452
 H         0.9170697478       -0.0058952537       -5.6692193227
 H         0.5540351861        1.5800583792       -6.0554106431
 H        -2.4005655786       -5.7146339112       -6.5597665902
 H        -4.0632255389       -5.4696923791       -6.8691697343
 H        -3.1046572290       -4.1093499579       -6.0294205158
 H        -3.4260721307       -5.7406065720       -9.8265030095
 H        -2.7006359388       -6.5153454078       -8.4808910151
 H        -1.7323397962       -5.8557553352       -9.6721328613
 H        -3.5409813817        2.0562284231       -9.5058187387
 H        -3.7310085908        2.5818588572      -11.2372484692
 H        -2.1970916436        1.9453912598      -10.6095900251
 H        -5.3966225576        1.4892419706      -11.8146550792
 H        -5.5301257443       -0.1302460223      -12.3552003429
 H        -4.1415932036        1.0170284457      -13.1188982364
 H         0.5425788538       -3.1952079149      -13.4231073123
 H         2.1022172291       -3.6827443391      -12.5270097661
 H         1.9749460441       -3.7261526420      -14.3861243610
 H         4.2804366479       -2.1984002646      -13.4798034783
 H         3.6100433103       -1.7800827027      -11.9050983353
 H         3.9030066457       -0.4192614668      -13.0530555781
 H         2.5324329831        2.6674206536      -17.0773186123
 H         4.0468710503        3.1499055728      -17.8995744555
 H         4.0994014664        2.1342769958      -16.5797563132
 H         3.7705168508        2.2438688282      -20.1708390052
 H         2.0520816868        2.0337883769      -19.6976200965
 H         2.8258273753        0.8471084124      -20.6777557493
 H         9.0050525092        0.2414313971      -23.5470628847
 H         9.3037540558       -0.7885771675      -22.1836425839
 H         9.1279003088        0.9108331398      -21.8597281884
 H         6.3638594412        1.5328645691      -23.7996198533
 H         5.6787941413       -0.0043462998      -24.0732854687
 H         7.2789847549        0.4386571087      -24.6420192955
 H         6.6736352353       -6.2630001178      -20.5951614223
 H         5.7994947067       -7.1210937948      -19.4917130451
 H         6.1484391118       -5.4382233648      -19.0385172786
 H         4.0998753030       -5.8974448092      -22.6571678249
 H         3.6388077803       -7.3559732252      -21.8070927557
 H         5.4233295059       -7.0366207846      -22.0777159749
 Na        3.9374779394       -2.5702108502      -18.5629187033
 Na       -6.3904792451       -1.4691855042       -7.5472861518
