232

 C       -17.5946500790       -5.1584640403       -4.2814253735
 C       -18.0875745619       -6.3829822944       -3.5951784508
 O       -17.2328864977       -7.2222918936       -3.2488395648
 C       -19.5830442684       -6.3898714324       -3.1296307255
 C       -19.6625662016       -6.6282042898       -1.5603494163
 O       -19.5011201246       -7.8035459690       -1.1926416148
 C       -19.5760837411       -5.4954057291       -0.5120699633
 C       -18.4297153209       -5.8215856699        0.4804899593
 C       -17.0762230268       -5.4490010974       -0.1135720235
 O       -16.9796701969       -4.7888067323       -1.1165597643
 C       -15.8413249137       -6.1333296509        0.5712397550
 C       -15.8300460534       -7.6370322585        0.1092488312
 O       -16.9340084920       -8.1647437329       -0.0647108248
 C       -14.5999943968       -8.3857665484       -0.1924170251
 C       -14.7685785395       -9.9409254336       -0.3724026079
 C       -14.8551502046      -10.4550543735       -1.7861208463
 O       -15.9152250708      -10.3748615429       -2.4453356952
 C       -13.6959202919      -11.0002621176       -2.6449193513
 C       -12.9591970265       -9.5809983370       -3.3241967930
 O       -12.9457290226       -8.5440479666       -2.7193869118
 C       -12.5370571102       -9.6729210827       -4.8366311980
 C       -11.7436289895       -8.4558860575       -5.3517170013
 C       -10.4949865453       -9.0177568988       -6.0931464204
 O        -9.7336692135       -9.8279154805       -5.6063120629
 C       -10.2050892916       -8.4970155138       -7.6996619615
 C       -10.3847838857       -6.9323294410       -7.9124210036
 O       -11.0379897395       -6.3041993451       -7.1103257587
 C        -9.6315514388       -6.0789662693       -9.0334495827
 C        -9.0863240368       -4.7821896792       -8.5251305711
 C        -9.2165187692       -3.6409424017       -9.6197855540
 O        -9.9050675026       -3.8755240549      -10.6251709204
 C        -8.2996967200       -2.2596870937       -9.4761553172
 C        -6.9746535133       -2.4453222479      -10.2858371927
 O        -6.3302622223       -3.4013951308       -9.9183841267
 C        -6.4515407894       -1.5260591253      -11.4230595286
 C        -5.0270099527       -1.7319523233      -11.6341731106
 C        -4.6681402652       -1.2929801066      -13.1720952215
 O        -5.2694981084       -0.3775245651      -13.7106927041
 C        -3.4833942646       -1.8291016706      -14.0710963658
 C        -2.3384141202       -2.2815368835      -13.1736640768
 O        -2.4591936527       -2.1475878504      -11.9469983907
 C        -0.9966187880       -2.8784670089      -13.8118589866
 C        -0.1236722946       -3.2236182849      -12.6706374458
 C         0.4904963793       -1.8758295853      -12.0680644722
 O         0.1301211182       -0.8571940222      -12.5393834692
 C         1.2104452112       -1.9466132480      -10.6689640032
 C         2.3832981282       -0.8568124291      -10.6248210203
 O         3.4708318760       -1.2754429738      -10.9926542379
 C         2.0412449806        0.5922799693      -10.2510530078
 C         3.2505898120        1.5193729047      -10.4729043320
 C         2.8655485686        3.0093864142      -10.4126353305
 O         1.7594922569        3.2768417144      -10.6897070559
 C         4.1289947828        4.0391987971      -10.2111732189
 C         4.3614258081        4.5486723246      -11.6782613098
 O         5.4531461520        4.1251039384      -12.1811587573
 C         3.3069765318        5.4878016827      -12.3309003144
 C         3.7921371016        6.9376188653      -12.5170885149
 C         4.9832835168        7.0412406189      -13.6223283826
 O         5.0436177184        6.1654292533      -14.4384773373
 C         6.0083415456        8.2268153459      -13.7431154560
 C         7.2915468993        7.6097309739      -14.4032761915
 O         7.7570599990        8.1244060632      -15.3503471890
 C         8.0460170817        6.4706447576      -13.6278295623
 C         9.0871017084        5.8330302234      -14.5514395455
 C         8.3739489609        5.6194905119      -15.8756100439
 O         7.2495557774        5.2083302354      -15.8793945445
 C         9.0000480888        6.0565229292      -17.2178180961
 C         9.6073821603        4.6773149000      -17.7858892949
 O         9.7107151745        3.7234261172      -17.0169359249
 C         9.9302531128        4.5755476885      -19.3020833504
 C         9.9646528807        3.1372012741      -19.7359135694
 C         8.4970711466        2.5645088064      -19.8805612255
 O         7.5773839149        3.3158799268      -20.1845285003
 C         8.2755791703        1.0120125855      -19.8223767744
 C         8.6783348591        0.5708081258      -18.2521682976
 O         9.7789231704        0.1468124545      -18.0163971932
 C         7.7762884380        0.9546950135      -17.0817726492
 C         8.2428662971        0.4603804662      -15.6566927848
 C         7.2364926275        0.9720250478      -14.6139650431
 O         7.4203087481        2.0590118461      -14.1339487795
 C         6.0162759758        0.1563341406      -14.0962958146
 C         4.5798603344        0.8826993615      -14.2090388814
 O         4.5367858508        2.1241314480      -14.2051095654
 C         3.3209889258        0.0888897455      -14.5153903633
 C         6.0102803503       -1.2700997146      -14.9069264153
 C         6.3502320269       -0.1259252242      -12.6447976844
 C         6.7827995128        0.7875480940      -20.2118189614
 C         9.1460658555        0.1646549420      -20.8021251916
 C         7.8447740477        6.4887586311      -18.2154012170
 C        10.2735133066        6.9780600437      -17.1226782220
 C         5.4114837974        9.2385473818      -14.7710994312
 C         6.3874045856        8.7772389774      -12.4144672390
 C         3.7652112690        5.1532355014       -9.1474572569
 C         5.4103665239        3.2706317992       -9.7235556637
 C         0.0742744956       -1.8095175851       -9.5657964394
 C         1.9338521332       -3.2543757065      -10.4358079228
 C        -3.9884144653       -2.8704792203      -15.0327459346
 C        -2.9483318568       -0.6050136332      -14.9920105427
 C        -9.3184784372       -1.1638787162      -10.1306199920
 C        -7.9976445077       -1.9085163250       -7.9951619996
 C        -8.7933105044       -8.8579636670       -8.0571315160
 C       -11.1967021124       -9.3024882604       -8.6169233826
 C       -12.5344046127      -11.5119582262       -1.7204441265
 C       -14.1452835889      -12.0226962963       -3.6236837120
 C       -14.5816518017       -5.3085405341        0.3441657152
 C       -16.1108851866       -6.3311424732        2.1389853818
 C       -20.1926633101       -4.9508465868       -3.4931834226
 C       -20.3686003167       -7.5936027187       -3.7433239198
 H       -17.2367534326       -4.4702018980       -3.4753156149
 H       -18.3521262688       -4.8046126377       -4.8741394543
 H       -16.7336804061       -5.3278727434       -4.8844453867
 H       -20.5108367841       -5.3023771628        0.0832412278
 H       -19.3626869724       -4.5087363733       -0.9632506184
 H       -18.4785471250       -6.8495482840        0.9088342484
 H       -18.4961838308       -5.0611627215        1.3128317400
 H       -13.8872885581       -8.2701279813        0.6432751413
 H       -14.0988839044       -7.9395585489       -1.0708708363
 H       -15.6968326121      -10.2252431147       -0.0137566841
 H       -13.9645402486      -10.4818777078        0.1205527174
 H       -13.5866758069       -9.7695347320       -5.3280643502
 H       -12.0136489006      -10.6208049905       -5.0061811507
 H       -11.3597384127       -7.9643705323       -4.4823977304
 H       -12.4395024707       -7.7920984387       -5.8951218707
 H       -10.2631407515       -5.7975468471       -9.8646738520
 H        -8.8317971816       -6.6293753183       -9.5461174066
 H        -8.0055288884       -4.8080221368       -8.1150586439
 H        -9.6261486011       -4.3964864434       -7.6389648173
 H        -6.7006444917       -0.4315711974      -11.4662120657
 H        -6.9566123458       -1.9055548826      -12.3396487722
 H        -4.6491713221       -2.7595282253      -11.3405431667
 H        -4.4839052910       -1.1431067312      -10.9078621405
 H        -0.5562804214       -2.1607826604      -14.5039221902
 H        -1.2874242655       -3.8388106938      -14.2125332456
 H         0.6919949892       -3.8833497521      -13.0731416752
 H        -0.6254064500       -3.6553319118      -11.8312760953
 H         1.8076609195        0.5856564206       -9.1612731888
 H         1.0139121173        0.7945221443      -10.7344141070
 H         3.6715279114        1.3192513975      -11.4768453867
 H         4.0604533131        1.1950608375       -9.8643505951
 H         2.4000247786        5.2801117595      -11.8038011398
 H         3.2061565329        4.9113541941      -13.3478619871
 H         4.1605356389        7.3611143390      -11.5820772362
 H         2.9861792942        7.6227892514      -12.7447051626
 H         7.4168985720        5.7219701414      -13.1794546875
 H         8.4783300146        7.0034688159      -12.7274730287
 H         9.3348363835        4.8698818936      -14.2084121087
 H        10.1127898950        6.5020487421      -14.5882048730
 H        10.9765340314        4.8802897524      -19.4319308450
 H         9.2943803990        5.2429877990      -19.8577227323
 H        10.6188612716        2.3930785962      -19.1393971693
 H        10.3997292935        3.1043388427      -20.7335177890
 H         6.7846340080        0.4218746652      -17.3525907302
 H         7.6799349440        2.0438749963      -17.1239500252
 H         9.3123568839        0.6683838836      -15.4014965047
 H         8.1955156536       -0.6666333577      -15.9003378132
 H         3.0032993265       -0.0124776900      -15.6249205155
 H         2.4355403780        0.4096273959      -13.9825987511
 H         3.4418411506       -0.9400285804      -14.1106882822
 H         5.3054762371       -1.8481042541      -14.3150100684
 H         6.9603091759       -1.6851110755      -14.5830863791
 H         6.0689619387       -1.3640261527      -16.0084052623
 H         5.6128916655       -0.8615394671      -12.1459043436
 H         6.3613368560        0.7014062366      -11.9641728412
 H         7.4128168931       -0.3548676302      -12.4690243941
 H         6.4283297273       -0.1851512538      -19.9651099663
 H         6.5844094017        0.8332214958      -21.2363114917
 H         6.2251542045        1.5249041748      -19.7102884932
 H         8.7034797096       -0.8192712669      -20.9597679366
 H        10.1930843367        0.1447981538      -20.4562341502
 H         8.9648308765        0.5931167581      -21.7977880837
 H         7.6447653877        7.4824680112      -17.9233615760
 H         7.0214139884        5.8471886229      -18.0004025142
 H         8.0221783710        6.4775127808      -19.2726600043
 H        10.9051832711        6.5384978956      -16.3374562274
 H         9.9167080094        7.9966066729      -17.0163729565
 H        10.7165307502        7.0804602398      -18.1254610537
 H         6.1128097252       10.0562637881      -14.7400919763
 H         4.4684585102        9.6870613668      -14.5504311407
 H         5.3748114149        8.7171659903      -15.7554477048
 H         7.4455684541        9.0545117517      -12.4530219744
 H         6.2166249543        8.0166007728      -11.6045494823
 H         5.8364664405        9.6571905219      -12.0937569770
 H         3.8711415134        4.6908196103       -8.1622625407
 H         2.7416435227        5.6037960687       -9.3557847414
 H         4.6076803630        5.8588096571       -9.2298797585
 H         6.1801851216        3.9397564381       -9.9685688664
 H         5.6650556091        2.3890489023      -10.3296046509
 H         5.4567095479        2.8929320459       -8.7146787501
 H        -0.4428159945       -0.8240760974       -9.7763325548
 H         0.5533298906       -1.8025227618       -8.6272136938
 H        -0.5723728112       -2.6611526683       -9.6098842793
 H         1.1587195093       -3.9879036006      -10.5783998880
 H         2.3715499802       -3.4629989905       -9.4724497468
 H         2.7506332032       -3.4400710657      -11.1094450393
 H        -4.1209212723       -3.8595795067      -14.5987207721
 H        -3.3027391070       -2.9126331904      -15.8865483037
 H        -4.9157502267       -2.5202074930      -15.5114746046
 H        -2.2875760847       -0.8146800942      -15.8943323816
 H        -2.5139564093        0.1596286093      -14.3492419950
 H        -3.9091002860       -0.2992593745      -15.4497289671
 H       -10.2784976414       -1.1957829413       -9.5670316901
 H        -9.4363080464       -1.3610409643      -11.1532787485
 H        -8.7894700922       -0.1983304463      -10.0083220705
 H        -8.8609120714       -2.2929955097       -7.5114096692
 H        -7.8354989857       -0.8525929627       -7.8138975788
 H        -7.0819537753       -2.4449813807       -7.7236007806
 H        -8.3459964066       -8.2651484751       -8.8691029178
 H        -8.6800648731       -9.8608047330       -8.4515002796
 H        -8.0509359060       -8.8361095072       -7.2022977913
 H       -11.0653903323      -10.4090107288       -8.5418148120
 H       -11.1085828933       -8.7973542693       -9.5979952503
 H       -12.2012274499       -9.1319319357       -8.3340558713
 H       -12.3231130526      -10.7367399461       -0.9485275224
 H       -11.6251036350      -11.6891396636       -2.2724187286
 H       -12.8825892849      -12.4277023941       -1.1555550088
 H       -14.9936904022      -11.6999430052       -4.2074656865
 H       -14.4111056608      -12.8445496185       -3.0535977133
 H       -13.4127210030      -12.3333957773       -4.3442186097
 H       -14.4793492968       -5.2132284264       -0.7820099696
 H       -13.6648359632       -5.7438847298        0.6709006293
 H       -14.6925377446       -4.3076730102        0.7604877046
 H       -17.0803652643       -6.7927542381        2.2817803741
 H       -15.9597058178       -5.4385225687        2.6906807253
 H       -15.2607253491       -6.9906901635        2.4160245624
 H       -19.5604330305       -4.1580882688       -3.1791607622
 H       -21.0992966566       -5.0653095930       -2.9628660279
 H       -20.4295889014       -4.8182615310       -4.6022905474
 H       -21.4040385529       -7.5300691604       -3.5205441229
 H       -20.0560224734       -8.5501498159       -3.2981849633
 H       -20.3455600323       -7.5236695488       -4.8183364848
 Na      -17.7637487174       -8.9866869757       -1.9778192918
 Na        5.9922394192        3.8839290884      -14.5420442563
