232

 C         2.5712454364       -6.7885877506      -19.9337337397
 C         3.2598987471       -5.4633315586      -19.7555801313
 O         2.8865867650       -4.6757207254      -18.9051569865
 C         4.6206394419       -5.2888162322      -20.6702413779
 C         4.9150940861       -3.7643076704      -21.0042709281
 O         4.7737344401       -2.9064228590      -20.1177542806
 C         5.4496873199       -3.3522020317      -22.3440298356
 C         5.9779789549       -1.8871846478      -22.6301180691
 C         6.9227441701       -1.1117775959      -21.5917053030
 O         7.4570780359       -1.6233676600      -20.6044556549
 C         7.1467458977        0.4003283924      -21.9842628650
 C         6.0044229605        1.2186968161      -21.2055354907
 O         5.0458109961        1.6782801109      -21.8156385245
 C         6.4123572386        1.6131325314      -19.7532062655
 C         5.1539776853        2.0093037242      -19.0135970480
 C         4.0372832800        1.0162589991      -18.7262408926
 O         4.3904503626       -0.0872946009      -18.3557778671
 C         2.5947105046        1.5604291567      -18.6200005218
 C         1.8203026128        0.1626965242      -18.2810575514
 O         1.8875740345       -0.6621042088      -19.2060760317
 C         1.4858269672       -0.0326121061      -16.8344134826
 C         0.8649539162       -1.3938097884      -16.5164758984
 C         1.8215363549       -2.3202238679      -15.7481569355
 O         2.6031015214       -3.0784601131      -16.3207702266
 C         1.7517016626       -2.3808751867      -14.1618356637
 C         0.7408659800       -1.4565971038      -13.5081761779
 O         0.5237718360       -0.3340855226      -13.9428656455
 C         0.2392943457       -1.7453154524      -12.1388887884
 C        -0.9235985090       -0.7539053698      -11.6564463629
 C        -2.4159402942       -1.1247712264      -11.9420736427
 O        -2.6444508779       -2.0288857024      -12.7356695741
 C        -3.5579801253       -0.3313626841      -11.1674450016
 C        -4.6044551964       -1.3039271760      -10.5050834439
 O        -5.3347612084       -0.8345780835       -9.6319863437
 C        -4.7380480519       -2.7496889680      -10.9048537753
 C        -3.8935216282       -3.8631808691      -10.2198605967
 C        -3.9073789324       -3.8114105277       -8.6959088886
 O        -4.8704657777       -3.4587351852       -8.0468835467
 C        -2.6829141700       -4.4562585160       -7.9624450170
 C        -1.5421363764       -3.3789654488       -7.9485336732
 O        -0.8981529732       -3.2425622982       -8.9752350527
 C        -1.1403331616       -2.6719473031       -6.6290144606
 C        -1.0556736839       -1.1493151057       -6.7679633034
 C        -0.6452147835       -0.4834178803       -5.4849291916
 O        -0.4394534289       -1.1646325633       -4.4764580351
 C        -0.6286204620        1.0874376297       -5.3600783224
 C        -2.0425123410        1.6520034114       -5.9525306358
 O        -2.2466677817        1.6788295776       -7.1690960420
 C        -3.1615432394        2.2684905874       -5.0691533003
 C        -4.5793081215        1.9463215695       -5.5904288672
 C        -5.0810798133        0.4911940432       -5.4109302211
 O        -4.5423319229       -0.4395419690       -5.9873810751
 C        -6.4178491268        0.2755341399       -4.5195736209
 C        -7.6661942362        0.6147742828       -5.4089926293
 O        -7.7378468251       -0.0033329502       -6.4912520150
 C        -8.7790410595        1.6799929062       -5.0396074665
 C        -9.7705230029        1.6594271950       -6.1687897181
 C       -10.1829114643        0.1706745941       -6.6265392522
 O       -10.7457283770       -0.5009672600       -5.7721619826
 C       -10.2068563220       -0.3279498411       -8.1148082396
 C        -9.5331881949       -1.7583363080       -8.0466389021
 O        -8.4131233783       -1.8427498771       -8.5153919895
 C       -10.3527179587       -2.9068780288       -7.5364091991
 C        -9.5415418688       -4.2624038050       -7.7854736515
 C        -8.3465144084       -4.3360922425       -6.9284119913
 O        -7.6986593177       -3.3879898334       -6.4270231882
 C        -7.9830384245       -5.7224833978       -6.3891092859
 C        -9.1403052002       -5.9808814208       -5.3208213482
 O       -10.2063909924       -6.3808882779       -5.7518942329
 C        -9.0237656277       -5.7846438173       -3.8810510289
 C       -10.3168421807       -5.4975463946       -3.1830309887
 C       -10.8219213372       -4.1544594580       -3.7396175087
 O       -10.1685426738       -3.5424091247       -4.5575499535
 C       -12.0572402786       -3.4446031959       -3.0168715032
 C       -11.5146976011       -2.7711939677       -1.5990468517
 O       -10.9308777885       -3.5185322964       -0.8449836356
 C       -11.8981373207       -1.2838702683       -1.1790542613
 C       -11.2730447177       -0.8701151419        0.0678731307
 C       -11.1740641187        0.6292615528        0.3259887286
 O       -10.6714120282        1.3578956805       -0.5206127250
 C       -11.8479789249        1.2399593395        1.5800421978
 C       -11.3986799384        0.6050383627        2.9307510668
 O       -12.0782913286       -0.2624157416        3.4471723802
 C       -10.0399815344        1.0216075685        3.5699548064
 C       -11.5931652042        2.7919538038        1.5361338808
 C       -13.3335439331        0.9719992898        1.4392822997
 C       -12.6326127782       -2.3888218177       -4.0206112869
 C       -13.0632186108       -4.5711738725       -2.6936113988
 C        -8.0269523904       -6.8821781837       -7.3893107619
 C        -6.5626305703       -5.8406136832       -5.6608571300
 C       -11.6976304391       -0.4687920602       -8.6130614754
 C        -9.6250311639        0.5634459042       -9.1760128372
 C        -6.5646132069       -1.1608767817       -3.9254732671
 C        -6.2332122270        1.0867262551       -3.2526117280
 C        -0.3123386304        1.5801482170       -3.9548517746
 C         0.5074904035        1.5419372999       -6.2499718950
 C        -3.1407315362       -4.8936160391       -6.5630018265
 C        -2.2235379956       -5.6936744841       -8.7788614912
 C        -3.0065084090        0.6112151928      -10.0992666134
 C        -4.4466877000        0.3694808306      -12.2211066107
 C         1.6017335157       -3.8933079578      -13.8297176879
 C         3.1983250480       -1.9465581023      -13.4786760746
 C         2.6258632256        2.7519722297      -17.6552158418
 C         1.9537990639        2.0548299549      -20.0162126098
 C         8.4950227980        0.9903016995      -21.4679413714
 C         7.0435730203        0.6336688411      -23.5660556381
 C         5.8786720519       -5.7970657147      -19.7293943499
 C         4.5199468351       -6.1975826044      -21.8249712283
 H         1.8813659684       -7.0815234886      -19.0723771336
 H         3.3348989992       -7.5476960426      -19.9285542206
 H         1.9503938453       -6.8486889930      -20.7939114589
 H         4.7019264984       -3.4886078098      -23.1628990796
 H         6.2611771073       -4.0331354061      -22.6997231532
 H         5.0045912256       -1.2850058547      -22.7657328960
 H         6.4264148182       -1.9607156956      -23.6141365357
 H         7.1702148214        2.4189632098      -19.9649370932
 H         6.7907234360        0.7770875649      -19.2232259204
 H         4.7178859766        2.8632478248      -19.5372648700
 H         5.4600785035        2.4714867277      -18.0694893521
 H         0.7376573890        0.7587386705      -16.5772788909
 H         2.3952866822        0.2034332984      -16.2637574797
 H         0.5827196175       -1.9525011538      -17.3945864911
 H        -0.0826567462       -1.2577121977      -15.9995444997
 H         1.0350890089       -1.5873452502      -11.3608332221
 H        -0.1440036306       -2.8152035552      -12.0963758339
 H        -0.7404170630        0.2189229125      -12.0319705401
 H        -0.7312617517       -0.5326235145      -10.6382298152
 H        -4.8404825335       -3.0081970955      -11.9551660648
 H        -5.7176863507       -2.9855021118      -10.5516598170
 H        -2.9034467758       -3.9589988380      -10.6135349347
 H        -4.4225000448       -4.8164897241      -10.3715956079
 H        -0.1218438214       -3.1291684644       -6.3483187625
 H        -1.8562727783       -2.9356437305       -5.8716995206
 H        -1.9060110599       -0.6088197737       -7.2479050424
 H        -0.2176407229       -0.8906275185       -7.4662309370
 H        -2.8716192998        3.3734486226       -4.9915098535
 H        -3.1258152749        1.8205502758       -4.0361019583
 H        -4.4905712526        2.1784092141       -6.6900569791
 H        -5.3133410139        2.6937825620       -5.1603695186
 H        -8.3004927012        2.5887978770       -4.6194542916
 H        -9.2136562992        1.3578046901       -4.1329955103
 H        -9.4756208968        2.1467515232       -7.1221135288
 H       -10.7060103978        2.1714874919       -5.8715717281
 H       -11.3309209961       -2.8536747113       -8.0199194188
 H       -10.5599290141       -2.7059244260       -6.4225520031
 H        -9.1799416888       -4.1697294836       -8.8255190044
 H       -10.3260827840       -5.0501870797       -7.6230820632
 H        -8.3760433283       -4.9315534381       -3.6104242624
 H        -8.5694676498       -6.7671387907       -3.6022019681
 H       -10.0162912048       -5.5086995856       -2.1412536137
 H       -11.1064044505       -6.2633592326       -3.2971237307
 H       -12.9828595575       -1.3436204913       -1.0068663094
 H       -11.5918978408       -0.5464813147       -1.9459520815
 H       -10.2770024323       -1.3102777126        0.1393156788
 H       -11.8747302220       -1.2848002365        0.9049114242
 H        -9.5056881386        0.0383873550        3.8420921793
 H       -10.1078474286        1.6400081572        4.4531770642
 H        -9.3546785087        1.4084869778        2.8086683671
 H       -11.7092579683        3.0437054030        2.5435867947
 H       -12.0906776471        3.3186207020        0.7414479149
 H       -10.6140518613        2.9203643595        1.2542883057
 H       -13.8169067528        1.5235638693        0.5969227338
 H       -13.8289804789        1.2751304694        2.3184999082
 H       -13.4564760220       -0.1167058193        1.4047424538
 H       -13.3494299923       -2.8134239528       -4.6498872696
 H       -11.8339875073       -1.8405347520       -4.5124484925
 H       -13.2146682704       -1.5306050673       -3.5795180220
 H       -13.9463528273       -4.0266604673       -2.4408878656
 H       -12.7353744007       -5.1384339823       -1.8838057791
 H       -13.2332741503       -5.1669814624       -3.5121918808
 H        -8.9716411625       -7.4828254383       -7.2633684557
 H        -7.2305319830       -7.5130669255       -7.2536935902
 H        -7.9676956528       -6.5643976039       -8.4348240028
 H        -5.8506946170       -5.0844429723       -5.8668566378
 H        -6.1330506699       -6.7860642645       -5.8492711595
 H        -6.6336363325       -5.8163508836       -4.5496826832
 H       -11.7348234005       -1.1292182871       -9.5222036737
 H       -12.1045703226        0.4620866949       -8.9871947399
 H       -12.4094085628       -0.8454537135       -7.9484577851
 H        -8.4691900339        0.4218344220       -9.2470303654
 H        -9.8068009643        1.5752166831       -8.8724877787
 H       -10.1928892397        0.4028456902      -10.0860413590
 H        -7.4748668390       -1.1766719370       -3.3243704243
 H        -5.6402330393       -1.3944115467       -3.4155292464
 H        -6.7000211629       -1.8145503698       -4.6922851410
 H        -6.8264493244        0.7576333542       -2.4557839868
 H        -6.2456253340        2.1738085922       -3.5220324412
 H        -5.2099035347        0.9251205978       -2.9840228499
 H         0.4369602181        2.3425296108       -4.1279927257
 H         0.1096705332        0.8046719385       -3.3980466334
 H        -1.0604091275        2.0999932546       -3.5087188916
 H         0.2645992417        1.2528058663       -7.2510293105
 H         1.5202950416        1.1113140747       -5.9851592650
 H         0.5546777727        2.5937717196       -6.1914452261
 H        -2.3784520556       -5.3336083090       -5.8304879602
 H        -3.8282248882       -5.7586295257       -6.6441458913
 H        -3.5563652472       -4.0188471595       -6.1481640069
 H        -3.0575155397       -6.2786424513       -9.2605060218
 H        -1.6305488192       -6.3806553355       -8.0476923823
 H        -1.5888761043       -5.4701452720       -9.6478566401
 H        -2.7863385789        1.5965793260      -10.4434358474
 H        -2.0369596581        0.2626931327       -9.7235131136
 H        -3.5865555871        0.6828803196       -9.2170817097
 H        -5.4059343017        0.5388146725      -11.7067817388
 H        -4.5181860023       -0.1254049866      -13.1294779417
 H        -3.9897259165        1.3184636644      -12.5364991810
 H         1.2583380689       -4.3711182432      -14.7505893796
 H         0.9032986611       -3.9786109915      -13.0324082849
 H         2.4574854748       -4.5379837999      -13.5647567885
 H         3.9552971950       -2.3600690280      -14.0955649308
 H         3.1120480900       -2.3074538728      -12.5033440232
 H         3.4535788943       -0.9102703487      -13.5394758358
 H         1.6902080375        3.2586477276      -17.4343971435
 H         3.4129496200        3.4785307094      -17.9377665374
 H         2.8841667731        2.3703280997      -16.6393250164
 H         2.0022467874        3.0850318684      -20.2581603250
 H         0.8676565604        1.8909879841      -19.7903559044
 H         2.1102912934        1.3863004080      -20.8466373151
 H         9.3012628397        0.7036198687      -21.9881521168
 H         8.6947458309        0.7299905549      -20.4299738285
 H         8.3146139318        2.0370867624      -21.6261515658
 H         8.0298996240        0.9706274180      -23.7740266446
 H         6.1454969501        1.3544396565      -23.8258329557
 H         6.9386493928       -0.2370222082      -24.2089134128
 H         6.7930616159       -5.9708147761      -20.3737967197
 H         5.6282688253       -6.7949273166      -19.3575038247
 H         6.2116142598       -5.0983514837      -19.0192037643
 H         3.6445388242       -6.1090266405      -22.4813711408
 H         4.6481773436       -7.1781310232      -21.4477924268
 H         5.4026171764       -6.0020400991      -22.4733059451
 Na        3.3216546528       -2.3394498174      -18.3615051900
 Na       -6.2747720643       -1.7178022676       -7.6339073647
