232

 C       -17.5515178325       -5.1242417766       -4.3261311694
 C       -18.1412573895       -6.2631003981       -3.5157106358
 O       -17.4164155644       -7.1411420837       -3.0794646807
 C       -19.7063275502       -6.2844447547       -3.0741436727
 C       -19.6162876891       -6.6365418002       -1.5847730296
 O       -19.6718885466       -7.7850380294       -1.1588719106
 C       -19.6351068652       -5.5008676292       -0.6014567167
 C       -18.5022616720       -5.6132647315        0.4271808288
 C       -17.1373111011       -5.4134635384       -0.2011874181
 O       -16.9220869119       -4.6942863951       -1.1372221499
 C       -15.8131750162       -6.1176513188        0.5088566172
 C       -15.8988786506       -7.5735416019       -0.0411689673
 O       -17.0150964630       -8.0302856494       -0.1146030508
 C       -14.5687438544       -8.4717355075       -0.2138354685
 C       -14.8705133617       -9.9579167904       -0.2930389321
 C       -14.8427921555      -10.3858233997       -1.7886373101
 O       -15.9042815108      -10.4598578921       -2.3759278920
 C       -13.5028368279      -10.8630270988       -2.5871752756
 C       -12.9384541874       -9.5639916581       -3.3914551478
 O       -12.8066174509       -8.5415068642       -2.7656090615
 C       -12.4489905414       -9.7136936809       -4.8077834799
 C       -11.7482248296       -8.4099835481       -5.4429599982
 C       -10.5311792964       -8.9036939913       -6.1511460055
 O        -9.8464141320       -9.7222802693       -5.5674898452
 C       -10.1376882906       -8.5726628775       -7.6662780484
 C       -10.2599775454       -7.0038595335       -7.8164856415
 O       -11.0573960762       -6.3791206851       -7.1323431444
 C        -9.4787820541       -6.1631989971       -8.8792076501
 C        -9.0052230933       -4.7703774316       -8.4173608641
 C        -9.0263918879       -3.7046842466       -9.5441925036
 O        -9.8393244694       -3.9486022739      -10.4345904630
 C        -8.3625523790       -2.3453004337       -9.4618965053
 C        -6.9186765306       -2.5086937968      -10.2208432358
 O        -6.1817053127       -3.3710265899       -9.7458043567
 C        -6.5231781514       -1.7305184107      -11.4546945404
 C        -5.0180151620       -1.7843050768      -11.9030609529
 C        -4.7105745382       -1.2016025015      -13.2125367848
 O        -5.4228606784       -0.2700021354      -13.5933493139
 C        -3.5752001427       -1.7994321559      -14.0740582783
 C        -2.3639294531       -2.3286495932      -13.1926831332
 O        -2.4142614898       -2.4464826533      -11.9863861809
 C        -1.0690063756       -2.7851181528      -13.8838341145
 C        -0.0839364542       -3.2516314967      -12.7146568162
 C         0.3474708754       -1.9882955154      -11.9911062200
 O         0.2580873845       -0.8746215818      -12.5254343995
 C         1.1961218119       -2.0796406097      -10.6594498656
 C         2.2969977900       -0.9493687366      -10.6655987611
 O         3.4945746293       -1.2448485397      -10.9923411790
 C         2.0281245726        0.4867248894      -10.4042797851
 C         3.2961761336        1.3766787522      -10.4433742451
 C         2.8562431808        2.9017509905      -10.5039760616
 O         1.7442882663        3.3481072158      -10.7965982279
 C         4.0739088242        4.0350972636      -10.1939177271
 C         4.4152616543        4.5936074079      -11.6439118208
 O         5.5035037783        4.2670801564      -12.1774064830
 C         3.4001425876        5.4617434618      -12.3311867044
 C         3.7869882813        6.9084044127      -12.5411054769
 C         4.8702652182        7.1155342775      -13.5959169705
 O         5.0000980874        6.1767475569      -14.3645117522
 C         5.9918418804        8.2368144037      -13.7079072575
 C         7.3251949766        7.6285573087      -14.3147415514
 O         7.8927297786        8.1264828432      -15.2837737609
 C         8.0683971312        6.4801752279      -13.5751744694
 C         9.0671369226        5.8430652905      -14.6019671163
 C         8.3032180933        5.6610249159      -15.9233434110
 O         7.2101444190        5.0899476507      -15.9703135166
 C         8.9960261133        6.0215972476      -17.2415325829
 C         9.5321109195        4.6429111659      -17.7165680291
 O         9.7388462687        3.7426909075      -16.9207833323
 C         9.9361849303        4.5022836596      -19.2063696665
 C         9.9146982801        3.1093417361      -19.7889345074
 C         8.5073610618        2.5912680268      -20.0530197464
 O         7.5562423401        3.2618628451      -20.2938348254
 C         8.2260155854        1.0417702302      -19.7726939751
 C         8.7433305769        0.7029256527      -18.3096621273
 O         9.8575174103        0.1698595491      -18.0650683398
 C         7.6388843621        0.8758294270      -17.1576782692
 C         8.1888512189        0.5927492126      -15.7477928643
 C         7.2258671206        1.0094952251      -14.6844629422
 O         7.4520137130        2.0484549554      -14.0777387231
 C         6.0369955622        0.0736296986      -14.1030299411
 C         4.7240675805        0.8795975407      -14.3135710520
 O         4.7198406739        2.0861192860      -14.2377574983
 C         3.3612258485        0.2673996033      -14.4900681812
 C         5.9862536475       -1.3139341341      -14.8538748923
 C         6.2231987704       -0.1213496371      -12.6662145543
 C         6.7086596692        0.7808700838      -20.0902063093
 C         9.0422806197        0.1858274890      -20.8688255013
 C         7.9511259676        6.5513221037      -18.2405037101
 C        10.2761052571        6.8870073810      -17.1297339405
 C         5.4066326063        9.2687380445      -14.7388383020
 C         6.4556700587        8.7746216871      -12.3338258947
 C         3.7286572793        5.1610513209       -9.2410997823
 C         5.3737261723        3.4263257204       -9.6885413161
 C         0.1375692070       -1.8634525465       -9.5349990958
 C         1.9946816400       -3.3718069670      -10.4263304010
 C        -4.0877334862       -3.0087534011      -15.0546883752
 C        -3.0648473839       -0.5971056746      -14.8532457273
 C        -9.3801221380       -1.3274586725      -10.1905726449
 C        -8.0357546014       -1.8863421271       -8.0668485886
 C        -8.7025687113       -8.9518439220       -7.9172168583
 C       -11.1317576307       -9.3108439376       -8.6457406844
 C       -12.4238128047      -11.5745678415       -1.6765830917
 C       -14.0417338317      -11.8416813142       -3.6929379297
 C       -14.5844606697       -5.2686578276        0.3680107270
 C       -16.0278891251       -6.2914549073        2.0924750228
 C       -20.3376750262       -4.9328378996       -3.4765447514
 C       -20.4673995663       -7.4746374323       -3.8157975509
 H       -17.3515751753       -4.3079873249       -3.6900156409
 H       -18.1734941012       -4.9237474764       -5.2040273229
 H       -16.5568797962       -5.4538283822       -4.6787820952
 H       -20.6021767844       -5.5729286010       -0.0455400177
 H       -19.6746143836       -4.5132448525       -1.0308498633
 H       -18.5173686244       -6.6234226430        0.8457120687
 H       -18.6086219467       -4.8574762429        1.2442175403
 H       -13.8338093072       -8.3319386739        0.6137636245
 H       -13.9697700609       -8.2772256897       -1.0905577092
 H       -15.9218697798      -10.2139560058        0.0096828825
 H       -14.1773054155      -10.5107476389        0.2204844132
 H       -13.3354766598      -10.0065691052       -5.3570124152
 H       -11.7890887850      -10.5729540162       -4.7871896917
 H       -11.5203680364       -7.7072349435       -4.6235790959
 H       -12.4785731963       -7.9958263788       -6.1111314221
 H       -10.1777139779       -5.8648412577       -9.7332104515
 H        -8.6689189718       -6.7384912826       -9.3804615651
 H        -8.0550414879       -4.7912371037       -7.9006286554
 H        -9.6224466950       -4.3260058946       -7.6614705587
 H        -6.8983322446       -0.6534853243      -11.4526225803
 H        -7.0842181956       -2.1444532779      -12.2545983637
 H        -4.5690797451       -2.8361292322      -11.8919058575
 H        -4.4142739622       -1.3502721515      -11.1480643735
 H        -0.6590453348       -1.8442168023      -14.2220197767
 H        -1.2519966610       -3.5624545492      -14.6850548561
 H         0.8111430344       -3.6724460352      -13.1659862600
 H        -0.4040507856       -3.8134698724      -11.9140961502
 H         1.5778880208        0.5563663159       -9.4328648135
 H         1.1891787630        0.8424120936      -11.1119286367
 H         3.8642758007        1.1232936996      -11.3325041451
 H         4.0219750547        1.1936676185       -9.5947055885
 H         2.4139962716        5.2397774724      -11.8872426569
 H         3.3556765472        4.9619422414      -13.3134817922
 H         3.9953802614        7.5282481259      -11.6646409005
 H         2.9141818731        7.3843660676      -12.9941973286
 H         7.3653755527        5.7524043518      -13.1232866700
 H         8.5060750861        6.9801644903      -12.6717721408
 H         9.4174002339        4.7891872370      -14.3230195813
 H         9.9093056972        6.4457802428      -14.6872100222
 H        10.9977834351        4.8002043192      -19.2395892625
 H         9.3752184901        5.2002908624      -19.7415473332
 H        10.4147457480        2.3391994439      -19.1713383796
 H        10.4654475146        3.0640451432      -20.7133769355
 H         6.7413608025        0.3174669044      -17.5924387927
 H         7.5133762305        1.9970299366      -17.1311553343
 H         9.1477926138        1.1420884088      -15.6802671998
 H         8.4932248130       -0.4945336061      -15.7431040716
 H         2.8693503183        0.2774560562      -15.4481267252
 H         2.6470395552        0.8189294304      -13.7497241158
 H         3.2892770052       -0.7521384920      -14.0464516340
 H         5.1316769915       -1.7518991045      -14.3918738451
 H         6.8929098685       -1.9137838430      -14.4863063367
 H         6.0893628309       -1.3220501594      -15.9387214598
 H         5.3429600332       -0.6032121872      -12.1881307476
 H         6.3824162162        0.7704380403      -12.0642185117
 H         7.1575042724       -0.5912331516      -12.4123761902
 H         6.3688721875       -0.2144473496      -20.0364918283
 H         6.6848182327        0.9698634683      -21.1420124576
 H         6.0704144515        1.5329407951      -19.6864530094
 H         8.7494382333       -0.8496159821      -20.7750901121
 H        10.0965282488        0.3560803212      -20.7181454314
 H         8.6656836982        0.3244297768      -21.8618098615
 H         7.6189045037        7.5709454889      -17.8315393677
 H         7.1598178741        5.8259826215      -18.2714707191
 H         8.3131839336        6.6942855658      -19.2333732756
 H        10.9313408252        6.2993642130      -16.6197411853
 H         9.9021862386        7.8341377541      -16.6399005320
 H        10.6143187784        7.2721322355      -18.0464873441
 H         6.2468580276        9.9715108018      -14.9551002573
 H         4.7907853086        9.9165132445      -14.1604946711
 H         4.8177360128        8.8733306464      -15.5916627342
 H         7.3712104491        9.2703933026      -12.6175411112
 H         6.6804352208        7.9744064626      -11.5327109284
 H         5.7957479093        9.5027160905      -11.8032687394
 H         3.3647210201        4.7138188577       -8.2505343241
 H         2.9409327038        5.7628064607       -9.7005350065
 H         4.6415551650        5.6811606957       -9.1433762657
 H         6.0312457759        4.2541055118       -9.5477143573
 H         5.9394099186        2.8854306238      -10.4617270384
 H         5.3020872540        2.7032472600       -8.8558225695
 H        -0.3494225421       -0.9715022677       -9.7363312546
 H         0.6504892863       -1.8632742400       -8.5950988927
 H        -0.4955672480       -2.7083108577       -9.5033299781
 H         1.3121258071       -4.2705663473      -10.5993469360
 H         2.5720341631       -3.5870437363       -9.4758669708
 H         2.7980240770       -3.4263772048      -11.1872418970
 H        -4.1062617697       -3.9228357773      -14.4393736672
 H        -3.5543632410       -3.1621101703      -15.9473111711
 H        -5.1181416611       -2.7726438973      -15.3621673134
 H        -2.0465330874       -0.8208448197      -15.2889749495
 H        -2.9724745789        0.2467495429      -14.1400585093
 H        -3.6626035798       -0.4019336287      -15.7089572299
 H       -10.4421291521       -1.5229902123       -9.8410709748
 H        -9.1974429937       -1.4456998820      -11.3137692985
 H        -9.0561508535       -0.3481079348       -9.9115905001
 H        -8.8549786927       -2.0397341663       -7.4113636625
 H        -7.7284881152       -0.8268535717       -8.0714272720
 H        -7.1623153757       -2.4850425926       -7.8354442550
 H        -8.3063836181       -8.6796230958       -8.9032588962
 H        -8.4628562156      -10.0176077909       -7.7507774522
 H        -8.0640750714       -8.4767025719       -7.1542763303
 H       -11.0992461797      -10.2726518271       -8.2618870654
 H       -10.8717640742       -9.1788093073       -9.7226477872
 H       -12.1918589144       -9.0383695233       -8.4743347315
 H       -12.1436087360      -10.9265173640       -0.7577000773
 H       -11.5445398027      -11.8642413919       -2.2101033301
 H       -12.9628166686      -12.4310584415       -1.2617293704
 H       -14.9343340774      -11.4309694435       -4.2240200188
 H       -14.3097602178      -12.7314120013       -3.1669577169
 H       -13.4177110383      -12.0845094045       -4.4796850775
 H       -14.2950774618       -5.1030311355       -0.6581693780
 H       -13.6893809804       -5.6557716116        0.9091090791
 H       -14.8199077629       -4.2644833488        0.8179411404
 H       -16.9667545640       -6.9768027193        2.1861744817
 H       -16.2426972346       -5.3251464604        2.5038100145
 H       -15.0710386257       -6.6057500619        2.5689127348
 H       -19.7438847504       -4.1339291980       -3.0990507651
 H       -21.4213310265       -5.0238049245       -3.1801962015
 H       -20.2602077733       -4.8372820856       -4.6271023536
 H       -21.5622533314       -7.3774408495       -3.5878575871
 H       -20.1977636057       -8.4035607072       -3.3801260642
 H       -20.4291216705       -7.3798179425       -4.8488117852
 Na      -17.6974526619       -9.0636240381       -1.9882150949
 Na        5.9648900549        3.9455321772      -14.5179736322
