232

 C         2.9238762760       -6.5305393746      -19.5697040483
 C         3.3336986807       -5.1254958848      -19.9492446199
 O         2.5497277318       -4.1868872684      -19.7628725599
 C         4.6949562128       -4.9577811704      -20.4952789920
 C         4.9414220694       -3.4407297876      -20.9349312101
 O         4.7229912556       -2.5893693043      -20.1281810944
 C         5.3003977104       -3.0793436794      -22.3748615194
 C         5.6285465208       -1.5926249106      -22.4852919078
 C         6.7801389728       -1.0610314331      -21.6151436304
 O         7.4278860563       -1.7718321673      -20.8836934794
 C         7.0913836842        0.5489758753      -21.6897667016
 C         5.9719437793        1.2410399386      -20.9137180318
 O         4.8286604745        1.2351968710      -21.3155882616
 C         6.1452529617        1.8932550674      -19.5466161853
 C         4.7764847657        2.2966913250      -18.9890245267
 C         3.8417790611        1.1422395524      -18.7313094620
 O         4.2252268551        0.0307029233      -18.3683419866
 C         2.2422221679        1.3510922817      -18.7679692870
 C         1.5349918718        0.0492645320      -18.3895016723
 O         1.3891441739       -0.7713998411      -19.2834119238
 C         1.0197170745       -0.1453469379      -16.9406070406
 C         0.6311270474       -1.7075222282      -16.8079810181
 C         1.6647838063       -2.3557151646      -15.9452349433
 O         2.6069204386       -2.8408217478      -16.4844536487
 C         1.5836370117       -2.6857582888      -14.3081768150
 C         0.4887188646       -1.7307171564      -13.5407154654
 O         0.2007712432       -0.6780295095      -14.0561324474
 C        -0.2091076951       -2.3212930460      -12.2292133966
 C        -1.0658459215       -1.3696497134      -11.4904409669
 C        -2.4707775496       -1.5636664968      -11.8358603977
 O        -2.8723422256       -2.4795633514      -12.5369030127
 C        -3.4596658321       -0.6683542087      -11.1414287803
 C        -4.4025739225       -1.4941177875      -10.2937560046
 O        -4.9813308780       -1.0344416213       -9.3373009505
 C        -4.8020146083       -2.8841563389      -10.7279190138
 C        -3.7498369928       -3.8640256058      -10.2157751697
 C        -3.6924022835       -4.0035726564       -8.6803937489
 O        -4.5497245204       -3.6313425318       -7.8804753406
 C        -2.3838388332       -4.5308267884       -8.0663756689
 C        -1.6553795917       -3.1136198663       -7.9731410941
 O        -0.9387744510       -2.8099864881       -8.8819467806
 C        -1.7194239410       -2.2433211544       -6.7113466041
 C        -0.6934351827       -1.1277897158       -6.9496645690
 C        -0.3386729608       -0.4156942128       -5.6146491271
 O         0.1152006607       -0.9117591389       -4.6440004901
 C        -0.5864095420        1.2294993330       -5.5911541084
 C        -1.9956238921        1.4838498591       -6.1039722114
 O        -2.2419272976        1.3620719543       -7.2826708193
 C        -3.0456758300        1.8907149318       -5.0497798504
 C        -4.5293543350        1.8734814437       -5.5810933943
 C        -4.9976294660        0.4566255234       -5.4403525174
 O        -4.6948353498       -0.4286668521       -6.1956327110
 C        -6.1151095115        0.1940847064       -4.2780585237
 C        -7.4363665493        0.2725683513       -5.1194763394
 O        -7.6054893953       -0.4588824604       -6.0696488125
 C        -8.4110224862        1.3677329492       -4.8720118162
 C        -9.2719803235        1.7688027773       -6.0613747075
 C        -9.9983503661        0.4656195918       -6.6663047676
 O       -10.6837988845       -0.0556444621       -5.8269659355
 C       -10.2298014465       -0.0378899754       -8.1539863193
 C        -9.3718910922       -1.4808802990       -8.0960364510
 O        -8.3714167171       -1.5626120630       -8.7554604209
 C       -10.0496184459       -2.5401216660       -7.2912593522
 C        -9.5155591007       -4.0404743361       -7.5668497463
 C        -8.2619815663       -4.4058031059       -6.7610993662
 O        -7.3874674468       -3.6566456010       -6.4383948320
 C        -8.0315503192       -5.9775360565       -6.1575865354
 C        -9.2425922321       -6.1387526842       -5.2924216618
 O       -10.2563472015       -6.6455622295       -5.7158748596
 C        -8.9620159118       -5.8192766277       -3.7814159099
 C       -10.3405978306       -5.4544055385       -3.1481361897
 C       -10.8544977969       -4.1269201422       -3.6521827921
 O       -10.2027328012       -3.4418757269       -4.4170400239
 C       -11.9971727804       -3.4503424513       -3.0135412897
 C       -11.4688357553       -2.7153634421       -1.6379087011
 O       -10.6260685061       -3.1393069173       -0.9089263182
 C       -12.1657821437       -1.3433272006       -1.2395657000
 C       -11.9071021581       -0.9897516358        0.1869438191
 C       -11.5505566094        0.4953229326        0.2767551313
 O       -10.8447798470        1.0612563614       -0.5295958649
 C       -12.1161587870        1.2724877836        1.5300329984
 C       -11.1280801850        0.6417399964        2.6845894323
 O       -11.6097249136       -0.1595491162        3.4407718368
 C        -9.6253808353        0.9286348260        2.6877540037
 C       -11.9265138931        2.7739898779        1.2432963334
 C       -13.5694640328        0.9513451777        1.9443479704
 C       -12.5527153204       -2.3658071305       -3.9499625347
 C       -13.0571083375       -4.4144144793       -2.4966266277
 C        -8.1565148997       -6.9370252249       -7.4528501724
 C        -6.6978967308       -6.1149880376       -5.4580516479
 C       -11.7079969540       -0.0999850739       -8.4768208530
 C        -9.5486434247        1.0783112994       -9.0447867594
 C        -5.8129386587       -1.2362370315       -3.6086184917
 C        -6.0867297841        1.2366665463       -3.1861279411
 C        -0.2982541015        1.7807780103       -4.1062008264
 C         0.4857299440        1.7859715307       -6.5588391466
 C        -2.6089315912       -5.1261078223       -6.7304788885
 C        -1.3771849733       -5.3645378010       -8.8485203910
 C        -2.9309595693        0.4659514238      -10.2553951615
 C        -4.3237594389        0.0131044700      -12.2903626007
 C         1.3473518367       -4.1795296723      -14.2173159735
 C         3.0877371126       -2.2551064166      -13.6775954063
 C         1.7366913174        2.6336440823      -17.9372224245
 C         1.8181534485        1.7094649614      -20.2848035291
 C         8.5080177150        0.9106337402      -21.1367564674
 C         7.1538528542        1.0304296796      -23.2115666968
 C         5.6180381885       -5.2748858145      -19.3105169519
 C         5.1874072730       -6.0024202136      -21.6654858829
 H         2.1859051001       -6.8455895591      -20.2470500307
 H         2.4866745690       -6.6519222053      -18.5729184501
 H         3.7654100657       -7.2715984798      -19.6977172188
 H         4.4835594617       -3.3340267060      -23.0706691329
 H         6.2376509235       -3.6259636791      -22.7509548406
 H         4.6943156565       -0.9873427418      -22.2465387338
 H         5.9762597194       -1.3875832842      -23.5498117029
 H         6.7097201747        2.8052028099      -19.6318134680
 H         6.7139991509        1.1983734794      -18.8690021382
 H         4.3558728157        3.1195293171      -19.5810003074
 H         4.9711997247        2.8604456163      -18.0901114616
 H         0.0963110190        0.4459405972      -17.0190650083
 H         1.6934211640        0.2874477596      -16.1638296190
 H         0.5586636346       -2.1401688467      -17.8001155037
 H        -0.2535135471       -1.9996313354      -16.3127576949
 H         0.6941133547       -2.5835796218      -11.5883428550
 H        -0.8574757162       -3.1867287578      -12.4694064832
 H        -0.7473973918       -0.3761791305      -11.5434242916
 H        -1.0754785773       -1.4857099660      -10.3959174309
 H        -4.9151769953       -2.9518639064      -11.8024154702
 H        -5.7457377955       -3.1453639623      -10.2902775131
 H        -2.8003434153       -3.3957435565      -10.3862263770
 H        -3.8862462720       -4.8252598239      -10.6803326275
 H        -1.5522059918       -2.8183643347       -5.7960917972
 H        -2.7287533531       -1.7411834177       -6.5469159266
 H        -1.0212437566       -0.4397176412       -7.7142185521
 H         0.3154021081       -1.6347745007       -7.1531046783
 H        -2.8106100773        2.8801946864       -4.6663011395
 H        -2.9498188920        1.3809987269       -4.0094550113
 H        -4.2695553854        2.1569745575       -6.6656638058
 H        -4.9882272751        2.7355576683       -5.1385921408
 H        -7.8405918762        2.2189254333       -4.4293401536
 H        -8.9860491794        1.0320785346       -4.0234815583
 H        -8.7700001669        2.3148920755       -6.8483205097
 H       -10.0483017753        2.4952782538       -5.6979556549
 H       -11.1507522388       -2.4402979176       -7.4141820018
 H        -9.8575196442       -2.4304019494       -6.1667469079
 H        -9.3728290732       -4.1077659231       -8.6536757394
 H       -10.3725329438       -4.6046540065       -7.2136026373
 H        -8.3477423842       -4.8850925763       -3.7448017427
 H        -8.5906192510       -6.7354739841       -3.3336855476
 H       -10.2627680922       -5.3321777513       -2.0694824107
 H       -11.0244168902       -6.2440917860       -3.4399789650
 H       -13.2644360709       -1.5631646940       -1.2948239821
 H       -11.8265003585       -0.5316520295       -1.8963392671
 H       -11.0787994667       -1.6347818664        0.5451203931
 H       -12.7692368949       -1.2392124590        0.7826586876
 H        -9.1095457522        0.0118639920        2.9091634563
 H        -9.3718008521        1.8316498120        3.2919491067
 H        -9.2679390012        1.0627651820        1.6551379333
 H       -12.2381599544        3.3956794186        2.0560482656
 H       -12.5415837271        2.9915327585        0.4204847381
 H       -10.8693927939        2.9702021580        1.0354518488
 H       -14.0164398636        0.8921582745        1.0030034227
 H       -14.0882692294        1.8327919871        2.4061038278
 H       -13.6904685237        0.0622351828        2.5718967923
 H       -13.0391582807       -2.8531754248       -4.8351570008
 H       -11.7547763147       -1.7775360548       -4.3915250705
 H       -13.3966791956       -1.8106663155       -3.6158144984
 H       -13.5371204874       -3.9856228011       -1.7194415046
 H       -12.6263885158       -5.2687012909       -2.1036793859
 H       -13.6603964485       -4.7510620080       -3.2921188284
 H        -9.0970763161       -6.9133147416       -7.8606944683
 H        -7.8620893711       -7.9801380345       -7.1565954892
 H        -7.4326450186       -6.6614654271       -8.2103041345
 H        -5.9981474994       -6.6156540925       -6.1138084224
 H        -6.7013624518       -6.7526683301       -4.5502798485
 H        -6.3510298768       -5.1907197223       -5.1229497105
 H       -11.9458982922       -0.2555159306       -9.5050939850
 H       -12.2974986189        0.7343640856       -8.1016138289
 H       -12.1179856163       -1.0235397761       -7.9766420146
 H        -8.5100092891        0.9630060983       -9.1436884398
 H        -9.7195866214        2.0406324892       -8.4753595574
 H       -10.0181277902        1.0308859744      -10.0612405755
 H        -6.4329327810       -1.3221582469       -2.7645225582
 H        -4.8428958624       -1.3104547696       -3.1909948107
 H        -5.9840256037       -2.0597439490       -4.3566165353
 H        -7.0239682431        1.1551301299       -2.6211163032
 H        -6.0730899920        2.2013650564       -3.5493225177
 H        -5.1925618801        0.9883265802       -2.5897524034
 H        -0.8660412585        2.5758087224       -3.8452332405
 H         0.6744778838        2.0845844395       -4.0054096134
 H        -0.3709010522        0.9157353025       -3.4103562689
 H         0.4033823652        1.4388356061       -7.5564961424
 H         1.3770738028        1.6384803493       -6.0789559111
 H         0.4818517237        2.8893805595       -6.6240149585
 H        -1.7173056451       -5.3866493045       -6.1980332524
 H        -3.1797426623       -6.0806015619       -6.8808621933
 H        -3.2554202693       -4.4767913857       -6.0000728544
 H        -1.5329483836       -5.1433780189       -9.9640633190
 H        -1.4258349110       -6.4272558012       -8.6314275413
 H        -0.2656570397       -5.1122359115       -8.6316615533
 H        -2.3538450412        1.1710976280      -10.8398410441
 H        -2.3632769868        0.1079586690       -9.4448286670
 H        -3.7737237782        1.0306923496       -9.7827045964
 H        -5.1867130699        0.4279767773      -11.8105372004
 H        -4.7408931378       -0.8289880580      -12.9088953483
 H        -3.7576353717        0.7017890656      -12.9261095085
 H         2.2629617473       -4.6668433349      -14.6244374793
 H         0.5270874643       -4.6145785528      -14.8547370657
 H         1.2374024101       -4.5451067197      -13.2037925791
 H         3.8616734276       -2.9425979924      -14.0111961771
 H         2.9461484756       -2.3617041276      -12.5781153508
 H         3.3673954244       -1.2172511771      -13.8693044573
 H         0.6608838252        2.8832629931      -18.0240551112
 H         2.2768999671        3.4454447146      -18.3596208736
 H         2.0704270379        2.6841094535      -16.8716073130
 H         2.2931146129        2.6679460208      -20.6315329634
 H         0.7835515167        1.6638621536      -20.2676867254
 H         2.0599322240        0.9034475322      -20.9274728548
 H         9.3055459688        0.7157384246      -21.9036852170
 H         8.6997927916        0.3557009998      -20.3195944981
 H         8.4217443112        1.8721663651      -20.8395272168
 H         6.7628477246        2.0913832581      -23.4338627237
 H         6.5640876283        0.3916828147      -23.7463585692
 H         8.2621687770        0.9874795282      -23.4809078968
 H         6.5741707836       -5.0103244516      -19.5982865703
 H         5.7280048401       -6.3294419028      -19.0876244626
 H         5.2883083930       -4.7305487826      -18.3842155740
 H         4.6419520114       -5.8523921580      -22.5885818433
 H         4.9557444773       -7.0639881245      -21.4917232640
 H         6.2570234873       -5.8634987443      -21.7255215753
 Na        3.1434970827       -1.9606759693      -18.7320156184
 Na       -6.1953521622       -1.9990230603       -7.5780270950
