232

 C         2.7750014972       -6.4997958624      -19.4958679051
 C         3.2807083703       -5.1266768192      -19.9818832944
 O         2.5636636524       -4.1666625091      -19.9681292926
 C         4.9154496300       -4.8786288093      -20.5018228869
 C         4.9464149075       -3.3962658781      -21.0011576960
 O         4.7812494001       -2.5339089955      -20.1129314654
 C         5.1284873121       -2.9054018229      -22.4044617263
 C         5.7452506869       -1.4780872112      -22.6300901612
 C         6.8665378288       -0.9678622433      -21.6122515566
 O         7.4873626101       -1.7418653576      -20.8830576028
 C         7.0938840923        0.5937697346      -21.5761966469
 C         5.8160058369        1.2035643997      -20.8729939146
 O         4.6595285819        1.0522151409      -21.3139225805
 C         6.0719319783        1.9282854092      -19.4951155635
 C         4.7238237573        2.2776545648      -18.8860325327
 C         3.7583324046        1.0804253549      -18.7313417695
 O         4.1811586729        0.0025414618      -18.2940399671
 C         2.2076584787        1.3638978101      -18.9041266232
 C         1.3582909150        0.0064954683      -18.5023774994
 O         1.2309528906       -0.8906231541      -19.2798108621
 C         0.8152241355       -0.1940098515      -17.1078540338
 C         0.5840459572       -1.5902355484      -16.6389784732
 C         1.7631082176       -2.3135440833      -15.8982870506
 O         2.7248734395       -2.7641363615      -16.4793199360
 C         1.5390695834       -2.7200217077      -14.4268201093
 C         0.4685738689       -1.9184790273      -13.6414502898
 O         0.1839723681       -0.7673091271      -13.9025650367
 C        -0.0510400307       -2.5019304139      -12.3581107404
 C        -0.9262112261       -1.4613050568      -11.5927643606
 C        -2.4769086932       -1.6348435551      -11.8425863129
 O        -2.8496095490       -2.5738309231      -12.5333247304
 C        -3.5774757767       -0.6141509046      -11.1698384850
 C        -4.5468879193       -1.4317275574      -10.1822653218
 O        -4.9423865994       -0.8483003197       -9.1915054415
 C        -4.8582302851       -2.9193556929      -10.6116567015
 C        -3.8034066306       -3.9486065656      -10.1575196947
 C        -3.6726929752       -4.1071711354       -8.5826409332
 O        -4.6136214359       -3.8590493422       -7.8845537608
 C        -2.2905699002       -4.4317896447       -8.0115583561
 C        -1.4965148196       -3.0290668073       -7.9696543092
 O        -0.8069196557       -2.7290650354       -8.9440852712
 C        -1.6699807661       -2.0926277379       -6.7825196846
 C        -0.6120221014       -1.0116136960       -6.9184746394
 C        -0.3208022087       -0.3393305019       -5.5772197130
 O         0.1042400411       -0.9732511580       -4.6194070277
 C        -0.4971986342        1.2000177344       -5.5779641533
 C        -1.9210517546        1.4841203344       -6.0590484836
 O        -2.2672688679        1.3304155512       -7.2477983840
 C        -2.9824473890        1.9400749369       -5.0898726129
 C        -4.4246813591        1.8008172770       -5.6601513610
 C        -5.0377252152        0.4368170620       -5.3981444969
 O        -4.8571134689       -0.5262652835       -6.1986973926
 C        -6.0221226285        0.2077469345       -4.2541592386
 C        -7.3912448685        0.2185304890       -5.1340488116
 O        -7.6156942541       -0.6425641852       -5.9777863493
 C        -8.4918086066        1.3924067417       -4.8712438579
 C        -9.2725776133        1.7175564156       -6.0650216790
 C       -10.0977849144        0.5266023480       -6.5922959014
 O       -10.7070300098       -0.1404569673       -5.8115879524
 C       -10.1430113087        0.0868984649       -8.0931054968
 C        -9.4557210901       -1.3255199330       -8.2310199461
 O        -8.3449243183       -1.3756325864       -8.7809240170
 C        -9.7895324838       -2.4738474955       -7.1713715267
 C        -9.4010263635       -3.9749325889       -7.5623268234
 C        -8.2077813818       -4.4845126108       -6.7355950998
 O        -7.2928525617       -3.7112283124       -6.5327986628
 C        -8.0638480010       -5.8981294738       -6.2152453317
 C        -9.2467011429       -6.3162741101       -5.2202009587
 O       -10.3662618420       -6.6884396620       -5.5606541008
 C        -8.9920320756       -5.8989638910       -3.7670619271
 C       -10.4147618066       -5.5356919003       -3.1338570742
 C       -10.7858554587       -4.0767330224       -3.6539583344
 O       -10.1045042026       -3.5988010860       -4.5427688675
 C       -11.9910228394       -3.3800032216       -2.9591193789
 C       -11.4940912992       -2.6830244527       -1.6284815050
 O       -10.6531395857       -3.1270948095       -0.8680021972
 C       -12.2786928994       -1.4080387531       -1.2918657825
 C       -12.0491815655       -0.9797650339        0.1852990282
 C       -11.6368456484        0.4849296117        0.2889388500
 O       -10.9327096710        1.0316422133       -0.5373127323
 C       -12.0533606797        1.2919135672        1.6019701992
 C       -11.1243702141        0.7035832892        2.7110164029
 O       -11.4977941336       -0.1455324158        3.5179878118
 C        -9.6370779124        1.0187571662        2.4869585714
 C       -11.8887941286        2.7952595666        1.3554805124
 C       -13.5495030548        1.0249004697        1.9681235439
 C       -12.5713701559       -2.4683298001       -4.0058666349
 C       -13.1645405362       -4.3719696597       -2.3941460989
 C        -8.1508261766       -6.8906219669       -7.4972417276
 C        -6.7175040749       -6.0762933043       -5.5401732711
 C       -11.6447992029       -0.0650450220       -8.3971017393
 C        -9.4310758283        1.0636243349       -9.1393442843
 C        -5.8208678636       -1.2241000253       -3.8112248333
 C        -5.9143827988        1.2203722102       -3.0486101411
 C        -0.1210800278        1.7193133449       -4.1835025478
 C         0.4422087828        1.7074910667       -6.6503606805
 C        -2.4404888512       -5.0458168587       -6.6140904317
 C        -1.2863784255       -5.3632975207       -8.8103220045
 C        -2.8466934555        0.5431723762      -10.4419923895
 C        -4.5294819884       -0.0219495372      -12.2816694574
 C         1.3084257416       -4.1510629633      -14.4033720801
 C         2.8478651014       -2.2873573366      -13.6467098967
 C         1.9670929967        2.5352137932      -18.0298407029
 C         1.7084108755        1.7113383305      -20.4117248284
 C         8.3991554431        1.0359555045      -20.8913681035
 C         7.1214497494        1.0451873444      -23.1519079833
 C         5.7335346088       -5.0590268155      -19.1477951498
 C         5.2174591408       -5.9275566327      -21.6089060246
 H         2.2392874004       -7.0054365922      -20.3303515070
 H         2.0081791648       -6.3513799280      -18.6901410123
 H         3.5378624793       -7.1904484977      -19.1533626391
 H         4.0575451421       -2.8395956974      -22.7540073365
 H         5.6326354170       -3.6382714781      -23.0899554530
 H         4.9432421194       -0.7401296695      -22.6571081371
 H         6.3200726232       -1.5098177261      -23.6542204756
 H         6.7223994018        2.7854212424      -19.5990343314
 H         6.5841225256        1.2008257044      -18.7863059919
 H         4.3176273609        3.1449703184      -19.3888415368
 H         4.9322587697        2.7311201642      -17.9179703223
 H        -0.1151043539        0.3793796808      -17.0819172259
 H         1.5751960843        0.3287832648      -16.4834714718
 H         0.2895192984       -2.1779223264      -17.4795533814
 H        -0.2363560860       -1.7369852888      -15.9144405305
 H         0.7896726020       -2.7906896892      -11.8292420572
 H        -0.7048812222       -3.3105638174      -12.5828453738
 H        -0.6830873656       -0.4411502279      -11.9433786748
 H        -0.7090411627       -1.3597818015      -10.5379579360
 H        -4.8523480925       -2.9162718543      -11.6658458157
 H        -5.8127632940       -3.3042922909      -10.2746368635
 H        -2.8357710121       -3.6383012371      -10.5234615894
 H        -4.1637597345       -4.8719905247      -10.5430854861
 H        -1.5338347434       -2.6736653408       -5.8989276855
 H        -2.6671249208       -1.5709981391       -6.6127361351
 H        -1.0241218259       -0.2478906213       -7.6152759193
 H         0.3633114032       -1.4166369303       -7.2144203974
 H        -2.7693871471        2.9499995645       -4.7262873940
 H        -2.9460084493        1.4889384339       -4.0890210067
 H        -4.2279379314        2.0315585285       -6.6978345347
 H        -4.9136879714        2.6644330368       -5.2052680612
 H        -8.0326085819        2.2669576645       -4.4724381446
 H        -9.2445509834        1.0321258823       -4.0613608948
 H        -8.7198479412        2.0941052179       -6.9063294274
 H        -9.9016022009        2.5267472305       -5.7551582152
 H       -10.9056554049       -2.3674744508       -6.9223207131
 H        -9.2341433152       -2.2509174681       -6.2762665417
 H        -9.1067110643       -3.8339247101       -8.5794081195
 H       -10.3030747330       -4.4846748720       -7.5262173151
 H        -8.4572008763       -4.9202166040       -3.7216603678
 H        -8.5312687503       -6.8123215988       -3.3059871376
 H       -10.2761341804       -5.4696611489       -2.0474964192
 H       -11.1848849288       -6.2214938458       -3.4356461833
 H       -13.3329016043       -1.7494389596       -1.4386483382
 H       -11.9585034814       -0.6060310478       -2.0126285753
 H       -11.2702896255       -1.6509607886        0.5463850099
 H       -12.9010456893       -1.1670353815        0.7999179840
 H        -9.0177875804        0.3071192133        2.9520783596
 H        -9.5550581116        2.0323002906        2.9154280072
 H        -9.2964863492        1.0203357859        1.4395364560
 H       -12.2633348129        3.3363589086        2.1717858448
 H       -12.6213284484        3.0366635105        0.6336960573
 H       -10.9366722888        3.0860272435        1.1698339572
 H       -14.1922164188        0.6914805107        1.1042128622
 H       -13.9996821415        1.9527667156        2.3637889609
 H       -13.5095663564        0.3030729711        2.7771611643
 H       -13.2328782316       -3.0233594729       -4.7872585088
 H       -11.8602037533       -1.9484472721       -4.6386243825
 H       -13.3442748878       -1.8234510594       -3.5799228805
 H       -13.9803605349       -3.8885876838       -1.8127385041
 H       -12.6946365588       -5.0916126708       -1.7321234833
 H       -13.5196530496       -4.9625447585       -3.2067037539
 H        -9.1577291589       -6.9533369974       -7.9374894144
 H        -7.8429222236       -7.8710318263       -7.1096910079
 H        -7.4502274473       -6.6527776414       -8.2669472911
 H        -6.0045708801       -6.5828376342       -6.1827914819
 H        -6.8082624288       -6.7676394933       -4.7335037434
 H        -6.3370010613       -5.1871279328       -5.0904693079
 H       -11.8746199289       -0.3810664129       -9.3584848523
 H       -12.1187231486        0.8982308241       -8.1897563604
 H       -12.1396346440       -0.7560967207       -7.7308280884
 H        -8.3721267128        0.7907954816       -9.2658572335
 H        -9.4870155332        2.1193479963       -8.8043272362
 H        -9.8838441792        0.7965679749      -10.1132543057
 H        -6.3328795203       -1.3376127407       -2.8329848250
 H        -4.7266688699       -1.3742715595       -3.4512515023
 H        -6.0810757690       -1.9525385798       -4.5409558734
 H        -6.5915358275        0.9353168416       -2.2722298988
 H        -6.3045793717        2.1588497391       -3.4035696176
 H        -4.9500697080        1.2733022798       -2.7278710666
 H        -0.5076228547        2.7558789708       -4.1304610989
 H         0.9026903877        1.8377257275       -3.9618284739
 H        -0.4974294425        1.0679004182       -3.3997907090
 H         0.1482454967        1.4585639112       -7.6874422286
 H         1.4650832496        1.5678508385       -6.3543916610
 H         0.3602023416        2.7827815705       -6.6228256919
 H        -1.4191218231       -5.1819456767       -6.1897048880
 H        -2.9677188874       -5.9954901240       -6.6282911211
 H        -2.9690448314       -4.4526891154       -5.8975257847
 H        -1.0985847731       -4.9613394015       -9.8815028697
 H        -1.7178436085       -6.4266929350       -8.8969832258
 H        -0.3161051311       -5.5307651569       -8.3037557555
 H        -2.6691397939        1.3279566310      -11.1082616623
 H        -1.9256446799        0.1210493413      -10.1608678521
 H        -3.2943296524        0.9792566620       -9.4878955647
 H        -5.5171457538       -0.0212920141      -11.9446816621
 H        -4.5457981643       -0.7576001294      -13.0885746384
 H        -4.2850640118        0.9390600276      -12.6117740948
 H         1.9823859364       -4.6106083291      -15.0435687859
 H         0.3612206350       -4.4151896650      -14.8370393885
 H         1.4395166041       -4.6107914181      -13.4164075523
 H         3.6855547503       -2.7497921827      -14.1499831405
 H         2.8121792687       -2.6922797670      -12.6741093278
 H         2.9285530882       -1.2130911388      -13.5469046679
 H         0.9367522871        2.9478023679      -18.2208941273
 H         2.6821416285        3.4214015276      -18.1836545838
 H         2.1217449542        2.2988540972      -16.9834464108
 H         1.9806384711        2.7784556384      -20.6342837090
 H         0.6899741993        1.4347611914      -20.4178371512
 H         2.2244730609        1.0758928673      -21.0825557780
 H         9.2270806390        0.7321356124      -21.4497336351
 H         8.3935565228        0.7243584217      -19.8538892152
 H         8.3093892610        2.1019666622      -20.8604650550
 H         6.6903215623        2.0613345556      -23.2550450401
 H         6.4964481439        0.4094557890      -23.8075814269
 H         8.2203851110        1.1119618823      -23.3958256011
 H         6.8505739171       -5.0937835644      -19.3358711879
 H         5.5307731025       -6.0711371780      -18.7410987022
 H         5.4262132612       -4.3403858399      -18.4162609241
 H         4.3474608918       -5.9844908700      -22.2126738236
 H         5.2685538836       -6.9362722085      -21.2383401988
 H         6.0829811588       -5.7209864200      -22.1478532070
 Na        3.1011886663       -2.0453044876      -18.7975554108
 Na       -6.1732192100       -2.0556204597       -7.6365511046
