232

 C         3.0336465432       -6.1717894479      -19.7620703161
 C         3.4006500420       -4.7819023829      -20.1880753326
 O         2.4574330060       -4.0211338076      -20.1419519657
 C         4.8966244101       -4.4704501428      -20.3183670616
 C         5.1464318901       -3.0757310755      -20.8784200311
 O         5.0059669553       -2.1148026918      -20.1228826597
 C         5.4247770472       -2.8735386330      -22.3747529171
 C         5.8827846819       -1.4717355887      -22.8455196253
 C         6.8882170241       -0.9333427120      -21.7645210742
 O         7.5529631746       -1.7563784741      -21.0828886875
 C         7.0416722333        0.5539161449      -21.4668171997
 C         5.6404613383        0.9554406187      -20.6878508106
 O         4.5740145477        0.6825915480      -21.2333676166
 C         5.7375991630        1.6865751596      -19.3367559493
 C         4.3709486803        2.0648682959      -18.8940104126
 C         3.3653190031        1.0226809270      -18.6384080938
 O         3.8065553702       -0.1269814036      -18.5679328892
 C         1.7715493685        1.3217146976      -18.8407633433
 C         1.0630422185       -0.0802649858      -18.5592331604
 O         1.1173002507       -0.9323181933      -19.4278497399
 C         0.5609182814       -0.2083962353      -17.1081406378
 C         0.2932045823       -1.7480833943      -16.7460000777
 C         1.6226559811       -2.2187135459      -15.9847066182
 O         2.6959317670       -1.9889670019      -16.4361507645
 C         1.5409693761       -2.7422902652      -14.5575104151
 C         0.4850778515       -1.8841500329      -13.7493258840
 O         0.2283449240       -0.7538358638      -14.1041846674
 C        -0.2328612609       -2.6041601018      -12.6231714250
 C        -1.0775251626       -1.6278607570      -11.7436353460
 C        -2.6063488569       -1.7266812279      -11.9660048920
 O        -3.0328842718       -2.5497331861      -12.7631987960
 C        -3.6841290528       -0.6744821406      -11.3066057417
 C        -4.3950369160       -1.4226518193      -10.0276216116
 O        -4.5898908605       -0.7893623008       -9.0063341415
 C        -4.7735257388       -2.8793785305      -10.2077087515
 C        -3.8148085778       -3.9866105496       -9.7997322948
 C        -3.6539988801       -4.2841832895       -8.2736074441
 O        -4.5915685591       -4.2910445399       -7.5227618013
 C        -2.1202694230       -4.4601654579       -7.8665015290
 C        -1.3333300502       -3.0637313430       -8.1347374112
 O        -0.5626611888       -2.9950343915       -9.0600502473
 C        -1.3102525081       -2.0480194910       -6.9945753592
 C        -0.1410994820       -0.9888263268       -6.9124506316
 C        -0.1552656266       -0.1991577491       -5.6107573826
 O        -0.2123633114       -0.7612659084       -4.5289812587
 C        -0.2881630555        1.4547272964       -5.6477592164
 C        -1.7771688032        1.6111504922       -6.0657733745
 O        -2.0415432240        1.3640481071       -7.2420845110
 C        -2.8506203567        1.8265678367       -5.0133293231
 C        -4.3305124561        1.7592418736       -5.5428739274
 C        -4.9073208447        0.3584221441       -5.5172753841
 O        -4.6941331879       -0.4291782183       -6.4389865433
 C        -5.9805128130       -0.0081190509       -4.3535750628
 C        -7.4048240311        0.1736431932       -4.9843705186
 O        -7.7217083007       -0.6392476054       -5.8727061636
 C        -8.3568502047        1.2930481278       -4.6605511083
 C        -8.9921735047        1.6932037355       -5.9439590498
 C       -10.0441638271        0.6074150505       -6.4903528977
 O       -10.7970128107        0.0296980457       -5.7598500404
 C       -10.0057649921        0.1445293315       -8.0667514583
 C        -9.1797408056       -1.3122908291       -8.0484567378
 O        -8.1591710924       -1.3745761561       -8.7064681660
 C        -9.6532543815       -2.4330719438       -7.2345881786
 C        -9.0294049581       -3.9291407049       -7.5820924063
 C        -7.9675573897       -4.4066709660       -6.6170904939
 O        -6.9494300612       -3.7585463258       -6.4575672563
 C        -8.1758879842       -5.9250383052       -6.2030523983
 C        -9.3444193432       -6.2861424047       -5.2005680896
 O       -10.3752079195       -6.7395427673       -5.6800114562
 C        -9.1546681477       -6.2039490364       -3.6944054270
 C       -10.3117620952       -5.4936701231       -2.8227905759
 C       -10.8299276151       -4.2682732418       -3.5596908771
 O       -10.2788874148       -3.8613408271       -4.5571974603
 C       -12.0704301841       -3.5801871339       -2.9923940977
 C       -11.6618762724       -2.7331153379       -1.6966905803
 O       -10.6980774773       -2.9475745543       -1.0048425895
 C       -12.4872920911       -1.3245686427       -1.3701235110
 C       -12.3790043476       -0.8962574140        0.0852803368
 C       -11.8591710478        0.5457390074        0.3214425890
 O       -11.3514367531        1.0956794691       -0.6166180549
 C       -11.9939233625        1.3246749701        1.6788218049
 C       -10.9073042142        0.7960526456        2.7216410826
 O       -11.2499700936        0.0698163525        3.6489455271
 C        -9.4610601518        1.2461106018        2.4349734166
 C       -11.9514844834        2.8538472106        1.3598772297
 C       -13.3801478809        1.1110430976        2.3560402687
 C       -12.5722142648       -2.6192449247       -4.0619215885
 C       -13.2593459114       -4.6064680297       -2.5730330412
 C        -8.5766645726       -6.7180734515       -7.5407096039
 C        -6.7931923294       -6.4559346581       -5.6412732623
 C       -11.4237790649       -0.4797082511       -8.5158379618
 C        -9.4464366509        1.2307459069       -9.0109657334
 C        -5.7988949261       -1.4002740614       -3.8291547652
 C        -5.7392219663        0.9660569996       -3.1092738881
 C         0.1449969896        1.9559315849       -4.2079389746
 C         0.6591870396        2.0118965282       -6.6933279831
 C        -2.0501972677       -4.9236548370       -6.4230539892
 C        -1.5400525701       -5.6017957689       -8.8571450724
 C        -2.9374033806        0.4942593107      -10.7920768237
 C        -4.7562981699       -0.4935047206      -12.3582246366
 C         1.1424383512       -4.2270139588      -14.7414271001
 C         2.9465580410       -2.7762525241      -13.9384304294
 C         1.2702936928        2.5621482233      -18.0921191534
 C         1.7732496562        1.6086818947      -20.4407559254
 C         8.3009414503        0.7340302591      -20.6178319473
 C         6.9999086802        1.5307521657      -22.7612836229
 C         5.7367383459       -4.6322071012      -19.0268340506
 C         5.3104469940       -5.4893998430      -21.3776573521
 H         3.4985882292       -7.0053234502      -20.1708090349
 H         1.9816148231       -6.3862037187      -19.8522975579
 H         3.2566724700       -6.1206890949      -18.6836987023
 H         4.4459001263       -3.0534704814      -22.7982835259
 H         6.0981744129       -3.6577027943      -22.8603957334
 H         5.0372531409       -0.8136623087      -22.8820615242
 H         6.3760994576       -1.4717042720      -23.8836700955
 H         6.3813984333        2.5218248997      -19.4800297762
 H         6.2525213169        1.0536555508      -18.5747556188
 H         3.9626472118        2.8374132432      -19.5746486761
 H         4.4751990722        2.6100957493      -17.9323363804
 H        -0.3665163309        0.3343287333      -16.9621074453
 H         1.3270468602        0.3208866608      -16.4972591320
 H         0.2826665494       -2.4441928839      -17.6229212377
 H        -0.6485421121       -1.8514872006      -16.2124228325
 H         0.5277713766       -3.1734413062      -11.9650318315
 H        -0.9306762234       -3.3455972471      -13.1983806231
 H        -0.9440267509       -0.6210305890      -12.0802309741
 H        -0.6806066857       -1.5401382400      -10.7107393044
 H        -4.8302782875       -2.9898356600      -11.3132778224
 H        -5.7845724827       -2.9952964097       -9.7441307945
 H        -2.8861240322       -3.6865186899      -10.2959974027
 H        -4.2229069017       -4.9260139410      -10.2177931037
 H        -1.3694914774       -2.4682666487       -6.0222703405
 H        -2.3337257692       -1.5762669170       -7.1494390186
 H        -0.1108356684       -0.2992154732       -7.7299374425
 H         0.7828433712       -1.6060900773       -6.8122172334
 H        -2.5546994977        2.7740783365       -4.5716835328
 H        -2.7170934050        1.1972333792       -4.0442680747
 H        -4.0174276567        2.1071934606       -6.5956705231
 H        -4.9475523496        2.4807980541       -5.0253292042
 H        -7.8897720418        2.1349865417       -4.1226626277
 H        -9.0493997549        0.7648563864       -4.0245856351
 H        -8.2394289708        1.9281917397       -6.7148691811
 H        -9.6585134974        2.6109071996       -5.7943505796
 H       -10.7582901893       -2.3115319674       -7.1502941189
 H        -9.2487288356       -2.1932124098       -6.2108281825
 H        -8.5949094398       -3.8691892737       -8.6383770645
 H        -9.9674099639       -4.4732807423       -7.6655793233
 H        -8.3199377792       -5.5371719895       -3.5217081240
 H        -9.0286494692       -7.2049978231       -3.2585010238
 H        -9.9765702266       -5.1739777292       -1.8098203753
 H       -11.1515223008       -6.1876296367       -2.7621238933
 H       -13.5436200700       -1.4065226615       -1.6939905452
 H       -12.0204513325       -0.6019756457       -2.0134702948
 H       -11.5053924061       -1.4931715421        0.5219462421
 H       -13.2186277916       -1.2142557660        0.7004375576
 H        -8.7329056621        0.6828054034        2.9848072448
 H        -9.3180998981        2.3658157998        2.6332044834
 H        -9.4044405074        1.0487738849        1.3066523663
 H       -11.5533456168        3.4118594827        2.2718312848
 H       -12.9237044480        3.4251993671        1.3218780524
 H       -11.2220445618        2.9872237950        0.5296658892
 H       -14.0917748486        1.2530376345        1.5971967649
 H       -13.5213189981        1.7573661158        3.2785294996
 H       -13.4592731348        0.0717222201        2.6337677676
 H       -12.5474805131       -3.1843818788       -5.0267101988
 H       -11.9789953742       -1.8128699317       -4.3689065270
 H       -13.5354280856       -2.2752890672       -3.7774875491
 H       -14.1055561140       -3.9975899897       -2.3112985934
 H       -12.8804845446       -4.9820192050       -1.6392862140
 H       -13.5953656278       -5.4223418331       -3.1866149512
 H        -9.5145377277       -6.3439338068       -7.8255620417
 H        -8.7794712771       -7.7991326177       -7.2600941512
 H        -7.9111964013       -6.6330730341       -8.3868824516
 H        -6.0183531260       -5.8433421550       -6.1671668864
 H        -6.5545806457       -7.4847453011       -6.0459079302
 H        -6.5718058605       -6.4419900523       -4.5956684793
 H       -11.2403726438       -1.2517339061       -9.2294367547
 H       -12.2562507617        0.2000418298       -8.8562129784
 H       -11.9245430328       -0.9735078603       -7.5940049712
 H        -8.5848681660        1.5845243609       -8.5615373141
 H       -10.2476744640        1.9960995452       -9.0879364158
 H        -9.1570023287        0.8386968003      -10.0003765244
 H        -6.5842188330       -1.6957839718       -3.1868228797
 H        -4.8896345127       -1.5163635630       -3.2494197819
 H        -5.7462086941       -2.0422145254       -4.6772494270
 H        -6.4533170044        0.8340810488       -2.2057828502
 H        -5.8166785354        2.0150316171       -3.4702888149
 H        -4.7094058692        0.7826762257       -2.7460107529
 H         0.8470186533        2.7210816648       -4.1541226449
 H         0.5591434747        1.1738586826       -3.6858152814
 H        -0.7628854730        2.0976288606       -3.5489698982
 H         0.3106623107        1.9336179226       -7.7289243982
 H         1.5452166139        1.4792723392       -6.5674538240
 H         0.9383118836        3.0789272088       -6.5076251407
 H        -1.0718271070       -4.8396668744       -5.9456912111
 H        -2.5757632566       -5.8761523230       -6.3521998375
 H        -2.7973855131       -4.3741008290       -5.7977126516
 H        -0.8212727692       -5.0496123235       -9.4894888346
 H        -2.1908302272       -5.9321520955       -9.6249203521
 H        -1.0734527351       -6.3379783873       -8.2707989515
 H        -2.4102768188        0.9808462720      -11.6001882364
 H        -2.3074911142        0.1986180792      -10.0094547591
 H        -3.7269039770        1.2906147541      -10.4363112714
 H        -5.7872269272       -0.6764346714      -11.9743276334
 H        -4.6002875507       -1.3277720986      -13.1794612250
 H        -4.8854991572        0.5510006371      -12.6759281430
 H         1.9531770139       -4.6393823189      -15.3575344457
 H         0.2919128409       -4.3801879414      -15.4679338623
 H         1.1723999560       -4.8825578118      -13.8450670204
 H         3.7139860352       -3.1153543193      -14.6575703399
 H         3.1953577103       -3.3678488136      -13.0066108088
 H         2.9586853575       -1.7175054714      -13.6149187252
 H         0.2999018155        2.4576234053      -17.6668999988
 H         1.1550595202        3.3237672258      -18.8519542397
 H         1.9594247276        2.9520019366      -17.4062121259
 H         2.5638783816        2.3859905488      -20.8621143029
 H         0.7790077875        1.9323505816      -20.5618055161
 H         1.9388122500        0.6702388009      -20.9226193599
 H         9.0930538913        0.6420445600      -21.3826931129
 H         8.3462131168        0.0793601146      -19.7708336354
 H         8.3360876487        1.7730275487      -20.3267186442
 H         7.5095230493        2.4554640226      -22.5051388816
 H         6.0361936241        1.8553210428      -23.0393295299
 H         7.3871622222        0.9682287220      -23.6298080735
 H         6.7298218759       -4.5470278948      -19.4247599078
 H         5.5759740364       -5.6188828870      -18.6399418252
 H         5.5931344015       -3.9347772811      -18.1946719345
 H         4.7071366231       -5.3296103550      -22.3321605683
 H         5.1815470869       -6.5758506349      -21.0138227696
 H         6.3721520568       -5.3798734028      -21.6670556085
 Na        3.0307851106       -2.3133263821      -18.7970404400
 Na       -6.3119073829       -1.7373588679       -7.4736511755
