232

 C         2.9581798307       -6.2504231103      -19.7111381950
 C         3.3838836268       -4.7714231581      -20.0063609346
 O         2.5820833172       -3.9022445552      -20.1615630549
 C         5.0203810952       -4.4647574656      -20.3874422514
 C         5.1481029308       -2.9291302687      -20.9794066967
 O         4.9202708884       -1.9524756536      -20.2564554919
 C         5.6328088243       -2.8221744267      -22.4411349807
 C         5.8402732386       -1.3453596650      -22.8556782027
 C         6.9754955355       -0.9367908696      -21.8456588859
 O         7.5671347066       -1.8188806847      -21.3033745688
 C         7.0437824600        0.5671134885      -21.4173041745
 C         5.7185725368        0.8516794098      -20.6064256041
 O         4.6540769563        0.6904171929      -21.1445000475
 C         5.6854127659        1.6050376961      -19.1979574141
 C         4.2981142130        2.2602570023      -18.7177028205
 C         3.2401992087        1.0502161815      -18.7430192272
 O         3.6167761405       -0.0754415374      -18.5819689302
 C         1.6066014476        1.3536205876      -18.9913999386
 C         0.9631456330       -0.1059302385      -18.4911423372
 O         1.0726538904       -0.9777672470      -19.3101800751
 C         0.3345476017       -0.3710817587      -17.1670792224
 C         0.3131657158       -1.8982562898      -16.7958251252
 C         1.6627339001       -2.1445781753      -16.0583043262
 O         2.7990517255       -1.8659204318      -16.5385640177
 C         1.5370364916       -2.7690976426      -14.6826948703
 C         0.4375151826       -1.9282388183      -13.8270896618
 O         0.2680480958       -0.7442464094      -14.0164038629
 C        -0.2999529823       -2.6141145684      -12.6639370762
 C        -1.1403643874       -1.5956964334      -11.8492427809
 C        -2.6394048227       -1.7982346329      -12.0741603256
 O        -3.0739283293       -2.6527328831      -12.8153897727
 C        -3.7226018926       -0.7835739359      -11.3007464414
 C        -4.3917422678       -1.5300859072      -10.0321849711
 O        -4.5142553376       -0.9644590675       -8.9500872783
 C        -4.8994995042       -2.9136249334      -10.2729718037
 C        -3.8102139517       -3.8684586108       -9.7636977009
 C        -3.6239016896       -4.1033860958       -8.2145145356
 O        -4.5346821284       -4.2398708281       -7.4509651067
 C        -2.0496000245       -4.5099106497       -7.7435415283
 C        -1.0739880911       -3.1943889099       -8.0258996965
 O        -0.5135806625       -3.0988937902       -9.1424808911
 C        -1.2242856512       -2.0105614418       -7.0359233186
 C        -0.0718773110       -0.9881573869       -6.9395413405
 C        -0.1772663377       -0.1571969516       -5.6021438703
 O        -0.3331277155       -0.6821611319       -4.4889971661
 C        -0.1710517797        1.3569541549       -5.6680926820
 C        -1.6767227111        1.6017147748       -6.0860636544
 O        -2.0331063856        1.4842760255       -7.2581909651
 C        -2.7441275513        1.7450160183       -5.0093055169
 C        -4.1780836852        1.7448642930       -5.5248905115
 C        -4.8698026976        0.4317121616       -5.4431615898
 O        -4.6374851925       -0.4273774835       -6.2942849984
 C        -5.8901768400        0.0102995185       -4.3960978279
 C        -7.3016834722        0.1052770009       -5.0239886577
 O        -7.5539124570       -0.6800076725       -5.9111171233
 C        -8.3333502497        1.2611414779       -4.7021778928
 C        -9.1290074687        1.7354287205       -5.9185523535
 C       -10.0700893969        0.6826711941       -6.4991821651
 O       -10.8403474563        0.1436735682       -5.7324876047
 C        -9.9091631432        0.0442528630       -7.9479583242
 C        -9.0175965343       -1.2211775094       -7.9171042860
 O        -8.0767937492       -1.3004536426       -8.7391027411
 C        -9.6938507922       -2.4786931160       -7.1955920292
 C        -9.0433191860       -3.9057365248       -7.5810801207
 C        -7.9608253629       -4.5025497325       -6.6284255432
 O        -7.0012286376       -3.8402364396       -6.2243398540
 C        -8.1584963536       -5.9716360342       -6.2614562713
 C        -9.4426433661       -6.2395632341       -5.1693773571
 O       -10.5178379569       -6.6070140024       -5.5835726274
 C        -9.0361290298       -6.1090909489       -3.6869046722
 C       -10.2368292254       -5.5953453291       -2.8635250649
 C       -10.7931251559       -4.2910071957       -3.5229854425
 O       -10.3464379277       -3.9070247762       -4.5796342551
 C       -12.1100604627       -3.5301517569       -2.9063389450
 C       -11.7401686294       -2.6650337011       -1.7317721462
 O       -10.7518319412       -2.9491722508       -1.0807836257
 C       -12.5073977461       -1.4030295631       -1.3697595274
 C       -12.3947760888       -0.9057601706        0.0806064779
 C       -11.9316901597        0.5797254924        0.2369140972
 O       -11.4315021783        1.1985116533       -0.7112522884
 C       -12.0447268166        1.3190279421        1.6207118218
 C       -10.8909054216        0.8204467670        2.6660750813
 O       -11.0969867832        0.1444812946        3.6460714545
 C        -9.4048775811        1.2594515236        2.4187449479
 C       -11.9252046391        2.8354751963        1.2993078263
 C       -13.3707776225        1.0197501050        2.5547296311
 C       -12.6392191354       -2.6821879727       -4.0535047920
 C       -13.2361021362       -4.5651831447       -2.6260905889
 C        -8.4783087764       -6.7038034909       -7.5655599848
 C        -6.8659634517       -6.6705735976       -5.7049385746
 C       -11.2987119577       -0.4699977297       -8.3954539182
 C        -9.4730783817        1.1174181094       -8.9916344995
 C        -5.6872488863       -1.4605255639       -3.9900740693
 C        -5.7787070655        0.8965441696       -3.0321062713
 C         0.0545168810        2.0078889998       -4.2459952521
 C         0.7477461874        2.0928306881       -6.7460570165
 C        -1.9842924621       -5.0561547970       -6.2934969570
 C        -1.5035523468       -5.6119021007       -8.7048938966
 C        -3.0106793115        0.5518887676      -10.9356283095
 C        -4.9294564696       -0.4995009718      -12.3396475089
 C         0.9322442036       -4.2687752175      -14.8389636781
 C         2.9361275274       -2.8321987640      -14.0681958407
 C         1.1015975791        2.5651372790      -18.2123802580
 C         1.5239078637        1.5196536328      -20.4824719611
 C         8.2970326167        0.7714630270      -20.5499833613
 C         7.0088594924        1.4522323558      -22.6640335889
 C         5.5707953928       -4.5726708805      -18.9474015428
 C         5.5688734630       -5.4289491292      -21.4673586895
 H         3.7795574201       -6.8279371206      -20.2128353098
 H         2.0521567019       -6.6187290567      -20.1857931022
 H         2.9202315701       -6.5227594377      -18.7108361831
 H         4.8600958205       -3.3162480714      -23.1230681066
 H         6.5896893232       -3.3753676992      -22.6016108939
 H         4.9180393784       -0.7203731439      -22.7139790264
 H         6.1681659040       -1.2671336344      -23.9835950681
 H         6.4943738849        2.3371030535      -19.2645126543
 H         6.0339297785        0.9062341269      -18.3922957060
 H         4.0329039359        3.1400184628      -19.2877401759
 H         4.4234838745        2.5802584544      -17.6740480723
 H        -0.7224704848       -0.0499375987      -17.2131521354
 H         0.8057225609        0.2763273655      -16.3891970717
 H         0.3330899361       -2.6680882042      -17.5024092668
 H        -0.5472218891       -2.0360654612      -16.1061556378
 H         0.4081882535       -3.0827355765      -12.0062506306
 H        -0.9883659794       -3.3884540246      -13.1707910098
 H        -0.8750934763       -0.5720996975      -12.0567931768
 H        -0.9141937654       -1.6595155472      -10.8072096291
 H        -5.1185544918       -3.0879215213      -11.2928433193
 H        -5.7769424173       -2.9968473101       -9.6363073708
 H        -2.8846995299       -3.5698174515      -10.2626163073
 H        -4.0611234571       -4.8794236178      -10.0678694706
 H        -1.4468182376       -2.3270972641       -6.0283899580
 H        -2.2024754700       -1.5776769754       -7.4653733098
 H        -0.1040786185       -0.2438060034       -7.8086159431
 H         0.8812688214       -1.5431206274       -6.9176381756
 H        -2.5036903065        2.5987076875       -4.3007200168
 H        -2.6004343537        0.9085558320       -4.2784521866
 H        -3.9774758159        2.0758217233       -6.5631430927
 H        -4.7554455663        2.5235710731       -4.9188226732
 H        -7.8603732315        2.1028751128       -4.3332633280
 H        -9.0025677135        0.7101031371       -3.9490566718
 H        -8.4216578983        2.1149666992       -6.6785539803
 H        -9.7901350737        2.5417097026       -5.5928770233
 H       -10.6798212577       -2.3002057323       -7.7534079718
 H        -9.9199162006       -2.4040182613       -6.1192052371
 H        -8.7181132417       -3.7750526922       -8.6192075419
 H        -9.9270604755       -4.4787582266       -7.6979084373
 H        -8.1621124407       -5.4460445309       -3.5244264176
 H        -8.9471968303       -7.1168823633       -3.1747489036
 H        -9.9492129018       -5.2622571881       -1.8584664059
 H       -10.9330500426       -6.4049504038       -2.8418472577
 H       -13.5829973020       -1.5164377920       -1.6559429212
 H       -12.1309456875       -0.6413507380       -2.1112554902
 H       -11.6545224637       -1.4265954181        0.7163673372
 H       -13.3277207117       -1.0896422246        0.5960995864
 H        -8.7972649629        0.6531623108        3.1208056087
 H        -9.3752417425        2.2777506149        2.8834020967
 H        -9.1271984980        1.2941056090        1.3434424514
 H       -11.6019187446        3.4886409047        2.0963775557
 H       -12.9661051914        3.2213605951        1.2498901229
 H       -11.3860961708        2.9968964473        0.4139309487
 H       -14.2322195389        1.4719012105        2.0331380295
 H       -13.2153984837        1.3015909761        3.5681648706
 H       -13.5940449592       -0.0184963590        2.4585529321
 H       -12.5901521792       -3.2548503652       -4.9780954085
 H       -12.0556141383       -1.8267930498       -4.3265825861
 H       -13.5823241978       -2.2623072417       -3.7606840952
 H       -14.1222384337       -4.1061589958       -2.2914652812
 H       -12.9081376942       -5.3141749310       -2.0147231693
 H       -13.5507610670       -4.9953889545       -3.5023948730
 H        -9.4872810338       -6.3564286256       -7.9488348427
 H        -8.5523079120       -7.7378014162       -7.3727677508
 H        -7.7590640960       -6.4888849542       -8.3097069986
 H        -5.9801195219       -6.1176140669       -6.0876944536
 H        -6.7434959629       -7.6508682573       -6.1041878432
 H        -6.7204097384       -6.6828100260       -4.6020791904
 H       -11.2051852115       -1.1186266932       -9.2830126507
 H       -11.8603442210        0.4600637038       -8.6941028788
 H       -11.9637860169       -0.9127872789       -7.6787318146
 H        -8.3608564460        1.3685620094       -8.8082102763
 H       -10.2097226389        1.9002167557       -9.0213196106
 H        -9.5298757383        0.6096720737       -9.9678164488
 H        -6.5271859159       -1.7405909897       -3.3585235132
 H        -4.7659990505       -1.6091107731       -3.3862559931
 H        -5.6563909534       -2.1210757052       -4.7745025287
 H        -6.6535091264        0.7710407665       -2.4165010258
 H        -5.6674503177        2.0058661642       -3.2587517117
 H        -4.9569711475        0.5777685706       -2.4391105756
 H         0.8212406396        2.7701960562       -4.2023531446
 H         0.4160487446        1.2838879397       -3.5731355960
 H        -0.7642850137        2.3232393718       -3.8074871043
 H         0.5254323762        1.7182367961       -7.7407336586
 H         1.7525576341        1.6980010578       -6.5434806407
 H         0.7348702835        3.1226342512       -6.7355875399
 H        -0.8380810254       -5.2200141223       -6.1661016995
 H        -2.5896545848       -5.9825460173       -6.1958774991
 H        -2.3353888868       -4.4917272834       -5.4637593234
 H        -0.8508507997       -5.1980193346       -9.5117228127
 H        -2.3463986441       -6.0499725143       -9.3798335575
 H        -1.0123401269       -6.3007343665       -8.0216987827
 H        -2.2128769271        0.7131852339      -11.6163579628
 H        -2.6688615278        0.6507224043       -9.8972225618
 H        -3.7186590609        1.3132683348      -11.1730314420
 H        -5.8633157367       -0.3149804397      -11.7338941440
 H        -5.1422425849       -1.2716107415      -13.0683794752
 H        -4.8508511491        0.5361373002      -12.7068247647
 H         1.6216572311       -5.0073924527      -15.2796085701
 H         0.1638490835       -4.1759482681      -15.6215551183
 H         0.5916552789       -4.7937225638      -13.8721075348
 H         3.5973676443       -3.5617372458      -14.5884587159
 H         2.9672201858       -3.1796309321      -13.0396970103
 H         3.2318724496       -1.7775939005      -13.9623455962
 H         0.2013754850        2.3251418371      -17.6516592061
 H         0.8480509592        3.4547955271      -18.8661578817
 H         1.8555159011        2.8474618468      -17.5327737017
 H         2.2092268185        2.0921935050      -20.9345316807
 H         0.4842975274        1.9027323423      -20.5773781002
 H         1.6035844953        0.4808480452      -20.8094490222
 H         9.0390550053        0.9905868569      -21.1525562446
 H         8.4484079869       -0.1842677018      -20.0468137012
 H         8.2428974266        1.5757303901      -19.8809642924
 H         7.5287981168        2.3751409532      -22.5368761785
 H         5.9177913359        1.7562098377      -23.0222364756
 H         7.2879766901        0.7699106390      -23.4456914904
 H         6.5774593607       -4.0843650817      -18.7785667912
 H         5.4588310483       -5.5786207103      -18.5888978219
 H         4.9153421401       -4.0673977529      -18.3253239830
 H         5.1727246564       -5.2166789997      -22.4961977069
 H         5.4079848891       -6.4971193502      -21.1929647694
 H         6.6684355160       -5.3044654003      -21.5761605205
 Na        3.0105928726       -2.1500606199      -18.7975499244
 Na       -6.2062095633       -1.6818449443       -7.3385520890
