232

 C       -17.5650037914       -5.1393930627       -4.3553305477
 C       -18.1754855310       -6.2047904566       -3.4642125282
 O       -17.5069914546       -7.1024499265       -3.0413640348
 C       -19.7739611889       -6.1857791586       -3.1182155995
 C       -19.8069138604       -6.5933756609       -1.5546918807
 O       -19.7353272547       -7.7505330613       -1.2333677593
 C       -19.7392392111       -5.4071758513       -0.5577495125
 C       -18.5384011059       -5.4274673893        0.4612337471
 C       -17.0646423081       -5.3146400287       -0.1481514313
 O       -16.8708176500       -4.6518783007       -1.1597309377
 C       -15.8608608452       -6.0128536223        0.5455059872
 C       -15.8851140442       -7.5318229507       -0.0306735198
 O       -16.9464645071       -8.0941615002       -0.2259963626
 C       -14.6115890397       -8.3372343384       -0.1792210462
 C       -14.8363942656       -9.9053734162       -0.3196383804
 C       -14.8159884318      -10.4532777832       -1.8403353329
 O       -15.8899755194      -10.4819311106       -2.4199728103
 C       -13.5373698530      -10.7747651374       -2.5320244241
 C       -12.8361888327       -9.4954704673       -3.3140318426
 O       -12.6935818706       -8.4546658001       -2.7267091685
 C       -12.4295543507       -9.7501736410       -4.7771486562
 C       -11.9102033652       -8.5189376562       -5.5444526611
 C       -10.5365632520       -8.9337834422       -6.2239800770
 O        -9.8082739185       -9.6382438793       -5.5747950402
 C        -9.9932789041       -8.5249120007       -7.5839847688
 C       -10.2430194787       -6.9089909256       -7.7569995648
 O       -11.0995767047       -6.3671681318       -7.0917615758
 C        -9.3104696340       -6.2625189776       -8.7443041538
 C        -8.9281045679       -4.8421123388       -8.2531742115
 C        -9.0809846399       -3.8242202318       -9.4845949677
 O        -9.7802208029       -4.0702773073      -10.4035269201
 C        -8.2708054105       -2.4444039156       -9.4882422885
 C        -6.9271295362       -2.6508840638      -10.1706327711
 O        -6.0594523649       -3.2936959642       -9.5907618731
 C        -6.7207096889       -1.8936319812      -11.4801430191
 C        -5.2249747405       -2.0513895185      -11.9335852726
 C        -4.9184318201       -1.2055743673      -13.1987837586
 O        -5.4810999192       -0.2218081748      -13.5621792715
 C        -3.5854016546       -1.7391160666      -14.0170947936
 C        -2.4043355849       -2.4604212516      -13.1905269862
 O        -2.5114674234       -2.6464467535      -12.0141648335
 C        -1.0977891390       -2.7640635247      -13.9454568307
 C         0.0320355834       -3.2208873442      -12.8965875396
 C         0.5150246752       -2.0294230140      -12.0057592800
 O         0.3714459076       -0.8925268904      -12.4539916008
 C         1.2871407554       -2.1570702094      -10.6596356116
 C         2.3547285263       -1.0008744076      -10.7228240597
 O         3.4780568089       -1.2745488906      -11.0292171035
 C         1.8777719898        0.5381841147      -10.5273386430
 C         3.1360655331        1.4356162014      -10.3826954044
 C         3.0349979666        2.8991446535      -10.5132004600
 O         1.9194023634        3.3413605980      -10.8335596083
 C         4.1585262921        4.0155827218      -10.2450685729
 C         4.4684487498        4.6340041353      -11.6860464200
 O         5.5158027344        4.4422592703      -12.1568837706
 C         3.3437714071        5.5483574206      -12.4170920662
 C         3.8346390755        6.9792404751      -12.5298585116
 C         4.9744510201        6.9356086482      -13.5623405372
 O         4.9661395038        6.1411913428      -14.4847077088
 C         6.0753843482        8.2311528035      -13.6199352727
 C         7.3723660432        7.6999778347      -14.1915686309
 O         7.8691921100        8.1798650604      -15.2273511465
 C         8.0485926846        6.4955584337      -13.5377921761
 C         8.9231229270        5.7969215660      -14.5640567238
 C         8.3127096685        5.5849454216      -15.9774608456
 O         7.2136227724        5.0051389075      -16.0962940739
 C         9.0103139128        5.9356665466      -17.2825711812
 C         9.5392292748        4.4883003487      -17.7582947206
 O         9.7492183306        3.6901940402      -16.9005134953
 C        10.0500101597        4.4079797365      -19.2316677507
 C         9.9419556103        3.0025378859      -19.8103016998
 C         8.4729499881        2.5584039345      -20.0299715303
 O         7.6207207661        3.3182655686      -20.4154933841
 C         8.1507990128        1.0217956428      -19.8231109625
 C         8.6286421902        0.6216018197      -18.4466924214
 O         9.7467071933        0.3206527851      -18.1929837359
 C         7.5551827118        0.8706247703      -17.2829812274
 C         8.2114879463        0.6964977533      -15.8831579205
 C         7.3341820653        1.0128199767      -14.6867196197
 O         7.4216600110        2.0612142146      -14.0488589158
 C         6.0771199520       -0.0040914120      -14.1849903111
 C         4.7884980665        0.9592351259      -14.3921093128
 O         4.8210889416        2.1511617512      -14.3234580014
 C         3.3862443970        0.2772841114      -14.3913638791
 C         5.9733126436       -1.3649486277      -14.8665529395
 C         6.1065645516       -0.0926967403      -12.6135989117
 C         6.7119223985        0.7188362261      -19.8681345587
 C         9.0374934710        0.2321293789      -20.8275371274
 C         8.0013123297        6.7265652030      -18.2280130202
 C        10.2185273399        6.9252868006      -17.1339211007
 C         5.4366562061        9.3073034356      -14.5562331772
 C         6.3642774988        8.8537752611      -12.2670356181
 C         3.4650280539        5.1329105179       -9.3744984526
 C         5.3958433881        3.3460870048       -9.5732124782
 C         0.2707800699       -1.8809559150       -9.4584747649
 C         1.9014911773       -3.6008947668      -10.4715093288
 C        -4.1263958004       -2.9219538387      -14.8857843180
 C        -3.0809830381       -0.5722945088      -14.9484863525
 C        -9.2300201338       -1.4689646404      -10.2532133626
 C        -8.0854412158       -1.8455773758       -8.0540367576
 C        -8.5713947378       -9.1285651526       -7.7922413499
 C       -10.9880257997       -9.1908873963       -8.6023128918
 C       -12.4925888820      -11.4446690768       -1.7588055405
 C       -13.9261146364      -11.7975247152       -3.7102242331
 C       -14.5538682715       -5.2950678660        0.2482405259
 C       -16.0579413069       -6.2300724772        2.0651205031
 C       -20.5485805590       -4.9493130709       -3.4409307008
 C       -20.4337608000       -7.3159182674       -3.9526707821
 H       -17.5893358106       -4.1658104132       -3.9077957909
 H       -17.9648974859       -5.2205883220       -5.4186051132
 H       -16.4986510380       -5.3918165739       -4.3886441799
 H       -20.6476062111       -5.2758766501       -0.0110067119
 H       -19.6639562146       -4.4614548046       -1.1037601407
 H       -18.5468078752       -6.3934827595        0.9417738026
 H       -18.6774263078       -4.6467352867        1.1942149744
 H       -13.9465035125       -8.2192986010        0.6696006275
 H       -13.9705676220       -8.0242260477       -1.0109115542
 H       -15.8590473554      -10.2141021367        0.0670957736
 H       -14.0253156159      -10.3674313844        0.2916220788
 H       -13.1395598980      -10.3041281081       -5.2563456828
 H       -11.5417069805      -10.3731970814       -4.6358958218
 H       -11.6877063958       -7.7599697326       -4.7551614546
 H       -12.6722581755       -8.1608745906       -6.2201127650
 H        -9.8362742399       -6.0623809601       -9.7529208378
 H        -8.4506459012       -6.9469230847       -8.9552090701
 H        -7.9288894731       -4.7940554407       -7.9853115998
 H        -9.3668704617       -4.4940757178       -7.3439014946
 H        -6.9198588439       -0.8756263566      -11.2310364862
 H        -7.3890388513       -2.0315639602      -12.3302417221
 H        -4.9027892521       -3.0381265617      -12.0602507391
 H        -4.5509619806       -1.7453804731      -11.0992680021
 H        -0.8367420752       -1.8688058531      -14.5325256797
 H        -1.3010595148       -3.6615338619      -14.5674195194
 H         0.8303229128       -3.6243390755      -13.4304930085
 H        -0.3590083112       -3.9105969522      -12.0908770416
 H         1.2127596936        0.6613464229       -9.6740192189
 H         1.3207317228        0.9009468560      -11.3458318452
 H         3.8108708024        1.0822777622      -11.1911257436
 H         3.7261946238        1.2887559800       -9.4165445896
 H         2.4344992553        5.3603592216      -11.7454733252
 H         3.1185780357        5.0855269017      -13.3022900442
 H         4.1114726106        7.4360576309      -11.5496218331
 H         3.0286903452        7.6344530032      -12.9691757244
 H         7.2250623110        5.8603523790      -13.1265487875
 H         8.5765933695        6.7639122551      -12.6431628437
 H         9.3400129660        4.8336362373      -14.1577679268
 H         9.7559880828        6.4187951732      -14.6336159229
 H        11.0394391218        4.8483283250      -19.2873483546
 H         9.2999271155        5.0595251829      -19.7073643501
 H        10.4127063475        2.2668432397      -19.2787549674
 H        10.3357194535        2.8702537915      -20.8314982795
 H         6.8207445311        0.1283016250      -17.5305648387
 H         7.1886176704        1.9250681393      -17.3582830700
 H         9.1504709522        1.2474590233      -15.8731938900
 H         8.5459498294       -0.2986601757      -15.9211575031
 H         3.1702961190        0.3282314349      -15.4460230627
 H         2.5476365743        0.8172127316      -13.9360166595
 H         3.2469699801       -0.7533031832      -14.0668031755
 H         5.0110648421       -1.7539831581      -14.5171333206
 H         6.7792561829       -2.0609280156      -14.6550604299
 H         6.0369156564       -1.1816486229      -15.9326288726
 H         5.1834534087       -0.3018428262      -12.2252675986
 H         6.4101532849        0.8158213692      -12.0635497723
 H         6.8485959628       -0.7647467707      -12.2263569404
 H         6.5567431758       -0.3657962996      -19.7896916734
 H         6.2890165626        1.0012113860      -20.8646916106
 H         6.1848627363        1.4139693424      -19.1915140317
 H         8.9200621321       -0.7999593347      -20.5592072557
 H        10.0366088787        0.5926547131      -20.7352861045
 H         8.6597753962        0.1305440777      -21.8233111598
 H         7.5392751485        7.5611064126      -17.6640293374
 H         7.2785166675        6.0447420222      -18.7405196490
 H         8.6393169637        7.1507699297      -19.0398373591
 H        11.0632907012        6.3073922145      -16.8389805844
 H         9.8926346939        7.6626916319      -16.4689305662
 H        10.4130863818        7.4786647444      -18.0038484485
 H         6.2474785116        9.8374781523      -15.0704482603
 H         5.0703304427       10.1048138616      -13.8297615093
 H         4.5975228074        9.0106717629      -15.1555874719
 H         6.9609076312        9.7704142844      -12.5133721954
 H         6.8978766329        8.2558756277      -11.5536655284
 H         5.4165589493        9.1485118731      -11.7488457326
 H         2.8317712240        4.6166389997       -8.6218641925
 H         2.7362875745        5.6427098073       -9.9691608578
 H         4.2462438867        5.8385517040       -9.0224433762
 H         6.0158138983        4.1311962441       -9.0529697084
 H         6.1756674969        2.7883818630      -10.1069010978
 H         4.9260943617        2.6504927048       -8.8920564203
 H        -0.2247142117       -1.0008266851       -9.6895209727
 H         0.7700390483       -1.9171927039       -8.4877364801
 H        -0.3755460209       -2.7344381919       -9.4440534176
 H         1.1927286819       -4.4868083645      -10.4874068042
 H         2.5423469489       -3.6834806735       -9.5600160870
 H         2.7208543149       -3.7592955275      -11.2517905005
 H        -4.2130971028       -3.7520813402      -14.1967933678
 H        -3.5054927549       -3.2439182268      -15.7224062429
 H        -5.1048860448       -2.6857069612      -15.2623000444
 H        -2.0970368689       -0.8134641305      -15.1958050984
 H        -3.0537102332        0.3181633565      -14.3065645768
 H        -3.5516653369       -0.4212405323      -15.9066316745
 H       -10.2008187382       -1.7573844112       -9.8497047323
 H        -9.1230150985       -1.6357656699      -11.3606464486
 H        -9.0596072032       -0.4003813247       -9.9790282746
 H        -9.0564637085       -1.6221697340       -7.5631458576
 H        -7.5644508055       -0.9006156449       -8.1813767379
 H        -7.4465838404       -2.5330594763       -7.5288418432
 H        -8.3409356855       -9.5641981499       -8.7675076627
 H        -8.4355250002       -9.9012334318       -7.0230148136
 H        -7.7638458884       -8.4977884732       -7.5382107433
 H       -11.0625283147      -10.1255897831       -8.0868409081
 H       -10.5977468358       -9.2793364202       -9.5933127376
 H       -12.0420966359       -8.8189856375       -8.5629938541
 H       -12.0534333302      -10.8470530144       -0.9842494593
 H       -11.7039373798      -11.7532306945       -2.5089803516
 H       -12.9361965491      -12.3017411356       -1.2860401171
 H       -14.5392961729      -11.4231752604       -4.5032795061
 H       -14.3595530782      -12.7275526346       -3.2404046700
 H       -13.0374073388      -12.1396690004       -4.3057737147
 H       -14.3334142781       -5.2206111678       -0.7983023279
 H       -13.6788848413       -5.7737749147        0.7858798806
 H       -14.6016226326       -4.2422820124        0.6487996890
 H       -16.7722524993       -7.0182650635        2.2112014616
 H       -16.5280431104       -5.2339179738        2.4440717432
 H       -15.0936797927       -6.2719108954        2.5689341308
 H       -19.9078916870       -4.1424041192       -2.9467737269
 H       -21.6185362496       -5.1270027227       -3.1255503897
 H       -20.4881285975       -4.7395843652       -4.4479041951
 H       -21.4854953399       -7.3000727350       -3.6549517824
 H       -20.0719196119       -8.2563231570       -3.6095142747
 H       -20.4700418788       -7.1135777298       -5.0296813731
 Na      -17.7169906535       -9.1988173134       -1.9723014182
 Na        5.9736513928        4.0381433847      -14.4081302807
