232

 C         3.3399073405       -6.4199942290      -20.6199499644
 C         3.5499044675       -4.9396925546      -20.2378862053
 O         2.5801961289       -4.2895283141      -19.8056283910
 C         5.0157304732       -4.4158938584      -20.4565589125
 C         4.9765184871       -2.9831493405      -21.1830753730
 O         4.2822318904       -2.0700744068      -20.8042082782
 C         5.9706078503       -2.7371301460      -22.2940351099
 C         6.0355455961       -1.2459176628      -22.7173502131
 C         7.0689826762       -0.5007206449      -21.7228948722
 O         8.0179655118       -1.1946603902      -21.3656086777
 C         6.8384878427        0.8650266778      -21.0986615710
 C         5.3468141212        1.1711213205      -20.6993637224
 O         4.4078514317        0.7887670863      -21.3762662855
 C         5.1953873787        2.1271389510      -19.5065646114
 C         3.8013393014        2.4252052157      -19.1001553586
 C         2.9752852083        1.2188868304      -18.6737285782
 O         3.4936800564        0.2603719164      -18.1568142823
 C         1.3978788547        1.2448842128      -19.1560566153
 C         0.8277899570       -0.0655696151      -18.8903141566
 O         0.8267611291       -1.0660217390      -19.5996142205
 C         0.2882801580       -0.2871067765      -17.3500005729
 C        -0.0180603469       -1.7829607362      -16.9894785574
 C         1.2175384086       -2.4128610076      -16.2167623944
 O         2.2740531900       -2.5467463013      -16.7579933491
 C         1.1163261974       -2.9671524021      -14.7846308375
 C         0.3385266100       -1.9943046847      -13.8043867154
 O         0.5486610059       -0.8127172038      -13.8603487463
 C        -0.5839958833       -2.6211222560      -12.7896429039
 C        -1.3943582184       -1.5315487392      -12.0788082289
 C        -3.0156346958       -1.7840032461      -12.1654932018
 O        -3.3368544455       -2.8070433434      -12.7548002381
 C        -4.1304097524       -1.0058587239      -11.4340567425
 C        -4.5705758744       -1.8683127286      -10.0513849112
 O        -4.6790449795       -1.2173012199       -9.0619531259
 C        -4.7476357079       -3.4061781611      -10.1053268661
 C        -3.5216483622       -4.2726192279       -9.6452615983
 C        -3.1567896362       -4.1224973289       -8.1593772602
 O        -3.7466031957       -3.2346439318       -7.5281295696
 C        -1.8275436212       -4.6541718257       -7.6122775743
 C        -0.8584953279       -3.3982669973       -7.7624519269
 O        -0.1983946229       -3.2282254000       -8.7337574198
 C        -0.9681069584       -2.3736468581       -6.6500332393
 C        -0.1443771555       -1.0722466349       -6.8985651728
 C        -0.2367679341       -0.1620169032       -5.6914970162
 O        -0.4956579131       -0.6515022724       -4.6358704408
 C        -0.0216984501        1.4735016706       -5.8558944566
 C        -1.4968655094        1.9724093093       -6.0283263206
 O        -1.9371321480        2.3360323321       -7.0986679940
 C        -2.4326015792        1.8534825102       -4.7738908262
 C        -3.9147502918        1.7252675804       -5.2982405489
 C        -4.6094833906        0.2714821253       -5.2831169251
 O        -4.3474733811       -0.6240276101       -6.0716211950
 C        -5.6633996575        0.0320754419       -4.0360864482
 C        -7.0011770412        0.2030293307       -4.9756184959
 O        -7.2146410881       -0.5887516377       -5.8820418160
 C        -8.0472955067        1.2556368977       -4.6429313536
 C        -8.9152370129        1.6935416977       -5.8509662656
 C        -9.8173290427        0.4849330840       -6.3658190581
 O       -10.5064084671       -0.0573568215       -5.5435201430
 C        -9.7846917406        0.0539887492       -7.8871866388
 C        -8.8935008818       -1.2380255210       -7.9196244928
 O        -7.8621640176       -1.4271926462       -8.5544041300
 C        -9.4849037791       -2.5288445667       -7.1901515680
 C        -8.9898811357       -3.9410555554       -7.5756239192
 C        -7.9884748046       -4.5937378156       -6.6666798995
 O        -7.0319056239       -4.0152611177       -6.1569936069
 C        -8.2101292751       -6.1316518634       -6.2494384074
 C        -9.4330550894       -6.0643964005       -5.1883739654
 O       -10.5489432117       -6.4023643908       -5.5464863230
 C        -9.1415072281       -5.7174857790       -3.8074228993
 C       -10.3558678891       -5.2343511783       -3.0053218368
 C       -10.9148980151       -3.9189265622       -3.6104631925
 O       -10.2735386856       -3.2929554612       -4.4584625199
 C       -12.2363188476       -3.4308770754       -2.9464985859
 C       -11.7874533401       -2.6975222407       -1.6727884748
 O       -10.8423953143       -3.0889413723       -1.0424461655
 C       -12.4989194501       -1.4426125404       -1.1971734243
 C       -12.0291655532       -1.0032440984        0.1818939223
 C       -11.9965940852        0.5676768077        0.2529753106
 O       -11.7336499992        1.1712301419       -0.7509994825
 C       -12.0768567743        1.2678117319        1.6703948380
 C       -10.7299260324        0.8709667178        2.2213872155
 O       -10.7366014854       -0.0241133635        3.0438434615
 C        -9.4162196063        1.2790561500        1.6058293882
 C       -12.3153514983        2.7825742929        1.2972589150
 C       -13.2038667931        0.6425207203        2.4550142878
 C       -12.9833942823       -2.4654229614       -3.8829791592
 C       -13.2145440695       -4.5712887236       -2.4566150624
 C        -8.5663213562       -6.8602739491       -7.5264037382
 C        -6.8757123408       -6.7279805428       -5.6597583090
 C       -11.2569052326       -0.4507460708       -8.3944269705
 C        -9.1170224875        1.0067838823       -8.8733490948
 C        -5.6893744518       -1.4655517137       -3.6010216351
 C        -5.6143815927        0.9236322704       -2.8635148849
 C         0.6958755814        1.9496162982       -4.5669526944
 C         0.7960918353        1.6132877192       -7.1419685349
 C        -2.0444030633       -4.9996261904       -6.1091888968
 C        -1.0172223705       -5.8579933741       -8.2858855650
 C        -3.5545688062        0.4541665429      -11.0390306556
 C        -5.4296073519       -0.9172289163      -12.1875842210
 C         0.3142644714       -4.2385058396      -14.8960890490
 C         2.5065951102       -3.1541365050      -14.1602569788
 C         0.7121004285        2.3552738911      -18.2833847484
 C         1.4519688191        1.6708431614      -20.6938946209
 C         7.8658542388        1.0368103521      -19.9433770375
 C         7.2036890458        1.9070682841      -22.1706274333
 C         5.5957589095       -4.0949958289      -19.0750247224
 C         6.0446040618       -5.4380600062      -21.1184354515
 H         4.2098162793       -6.8352071062      -21.0297253728
 H         2.5484584177       -6.5239698688      -21.3439225002
 H         3.0466781864       -7.0569470978      -19.7604435445
 H         5.8103321380       -3.5065550684      -23.1284502959
 H         6.9413448683       -3.0720936264      -21.8853190001
 H         4.9974500845       -0.7007339408      -22.7192176686
 H         6.4399437198       -1.1290687124      -23.7363975853
 H         5.7111179790        3.1324873448      -19.6171843400
 H         5.6699394729        1.7376688547      -18.6295113064
 H         3.2614040984        2.8956174376      -19.9121647108
 H         3.8621871994        3.0450409859      -18.1916411739
 H        -0.5758156249        0.4249139831      -17.2617588280
 H         1.0654440089        0.1347070137      -16.7214492689
 H        -0.1362845834       -2.2963473514      -17.9308249066
 H        -0.8877007784       -1.8841430129      -16.3580996267
 H         0.0369936633       -3.2561836160      -12.1260753446
 H        -1.2412542754       -3.2919166697      -13.3667509200
 H        -1.1821915710       -0.5386533813      -12.5086271800
 H        -1.0534997258       -1.5389363811      -11.0685972560
 H        -4.9228307333       -3.6920568797      -11.1397980527
 H        -5.5924102089       -3.6266838322       -9.4894633156
 H        -2.6143573791       -4.0503253309      -10.1932798412
 H        -3.6803899995       -5.2746944732      -10.0168550339
 H        -0.4538491925       -2.8928514583       -5.7472987334
 H        -2.0039949145       -2.2144380114       -6.4111856327
 H        -0.5504335520       -0.5049349234       -7.7692882265
 H         0.9022256819       -1.2739504483       -7.2340152474
 H        -2.4289702312        2.7815741735       -4.1164195036
 H        -2.1321235575        0.9344966613       -4.2458913421
 H        -4.0058481871        2.1092840800       -6.3394265222
 H        -4.4874441751        2.3649585059       -4.5728774399
 H        -7.4789783900        2.1946816144       -4.3112742054
 H        -8.7074063076        0.7712607704       -3.9500961611
 H        -8.1978267061        2.0533365699       -6.5954889063
 H        -9.5524325644        2.4775308086       -5.4672388010
 H       -10.5334972506       -2.5028527723       -7.2115485880
 H        -9.2353326086       -2.2257200231       -6.1431252496
 H        -8.5517333475       -3.9556155696       -8.5576428256
 H        -9.9673551305       -4.4194924907       -7.7638799573
 H        -8.3240886883       -4.9580745076       -3.6603578779
 H        -8.5824235974       -6.5292002045       -3.2692758878
 H       -10.1653610736       -4.9130948119       -1.9966466185
 H       -11.1907492927       -5.9311726287       -3.0329526981
 H       -13.5550830887       -1.4224181636       -1.4310994610
 H       -12.1511836133       -0.6862780663       -1.9613524666
 H       -11.0817865047       -1.4536306478        0.4084758214
 H       -12.7110561657       -1.2903984260        1.0022533030
 H        -8.6826957930        0.5208734621        1.9490989214
 H        -9.1637475948        2.2076200788        2.1455658431
 H        -9.6789419115        1.5207720335        0.5698633559
 H       -12.3464313521        3.3910802530        2.1702010798
 H       -13.1131657907        2.9270782018        0.6232334875
 H       -11.4977877466        3.2060586460        0.7000903848
 H       -13.9471128636        0.0770042195        1.8955134610
 H       -13.6291602769        1.5174736748        2.9054645232
 H       -12.8093997051        0.0022911303        3.2536112427
 H       -13.3425066074       -2.9061179418       -4.7686366301
 H       -12.3488421774       -1.5612820763       -3.9775133180
 H       -13.8662976906       -2.0215061716       -3.4073254294
 H       -14.1465330514       -4.1948403597       -2.3094614366
 H       -12.8768161963       -5.1077986895       -1.6202714978
 H       -13.3569657330       -5.2324500355       -3.2593165070
 H        -9.4208705178       -6.4686991490       -8.0180660312
 H        -8.7210280545       -7.9149112572       -7.3341960465
 H        -7.6752302005       -6.7688921014       -8.1902239104
 H        -6.4170521334       -7.4398125755       -6.3250265334
 H        -7.0696288553       -7.1293576294       -4.6476388191
 H        -6.1409630317       -5.8997735577       -5.6247162562
 H       -11.2653725431       -1.0012037174       -9.3805170980
 H       -11.9584056846        0.3774762359       -8.4967168357
 H       -11.7089926471       -1.0058743154       -7.5488232424
 H        -8.1198417936        1.0364338356       -8.4910549112
 H        -9.6801202850        1.9392300273       -9.0727753205
 H        -9.0713625773        0.5762650177       -9.8830773715
 H        -6.5371752060       -1.7617991138       -3.0079852934
 H        -4.7945797181       -1.7536026695       -3.1187875972
 H        -5.7519710658       -2.1682410452       -4.4660631883
 H        -6.3084114709        0.5655575330       -2.0992018018
 H        -5.7745884222        1.9514344016       -3.0020922490
 H        -4.6216843080        0.8761122564       -2.3292797631
 H         1.3138417281        1.3024581456       -4.0972036296
 H         0.0945365311        2.3649851939       -3.8329492859
 H         1.3666540556        2.7199809953       -4.9475231455
 H         0.1614721017        1.6402876824       -7.9763686916
 H         1.4798130743        0.8194210405       -7.3264013702
 H         1.3065087925        2.5715417688       -7.0634722530
 H        -1.1750038895       -4.8511771690       -5.4866991143
 H        -2.3192960110       -6.0611313962       -5.9008893051
 H        -2.7360511449       -4.1610295586       -5.7560327545
 H        -1.1552829693       -5.7737072206       -9.4117225848
 H        -1.3892382814       -6.7941333274       -7.8474022695
 H         0.1166251191       -5.7658150195       -8.0853633940
 H        -3.8416823940        1.1158268717      -11.8282468654
 H        -2.5204536114        0.3477584136      -11.0944776613
 H        -3.8064252022        0.7759687748      -10.0222901941
 H        -5.7753373656        0.1209479612      -12.2352033192
 H        -6.2372536199       -1.5240430233      -11.6846458797
 H        -5.3167207460       -1.4105528000      -13.1980578943
 H         0.8714771373       -4.9361832987      -15.6338336867
 H        -0.7451818147       -4.0832079287      -15.2473811009
 H         0.1900148306       -4.7479518235      -13.9294052569
 H         3.2229152445       -3.3824192116      -14.9797380480
 H         2.6046656085       -3.9633593065      -13.3665023136
 H         2.9153198922       -2.2030616955      -13.7204108759
 H        -0.2962364087        2.5808193425      -18.5588894671
 H         1.3336202315        3.1595421263      -18.4548652164
 H         0.7054541406        2.0882449654      -17.1975648786
 H         1.6883378109        2.8128217005      -20.7396687410
 H         0.4690089833        1.5950597216      -21.0023404229
 H         2.1244302216        1.0533842805      -21.1827554921
 H         8.6095612413        0.2138107744      -19.9450552752
 H         7.4464880663        0.9622816450      -19.0325707146
 H         8.3690531288        1.9325407578      -20.0542553522
 H         7.2554496287        2.8915030306      -21.5665394849
 H         6.6520656305        2.0249955733      -23.0545069876
 H         8.3149184225        1.7649276870      -22.3979337510
 H         6.6079954423       -3.8955237377      -19.1690079394
 H         5.3731975317       -4.8615188604      -18.3492950763
 H         5.2251919403       -3.1132050182      -18.6991481032
 H         5.8736743181       -5.6989286940      -22.1952534695
 H         6.3106871726       -6.3473125455      -20.5334310596
 H         6.9978895610       -4.8243078748      -21.2116227864
 Na        2.7567797691       -2.1548343612      -19.0277749199
 Na       -6.0455915317       -1.9983241172       -7.0769822842
