232

 C         3.4571621574       -6.2245709521      -21.3477777290
 C         3.7239618997       -5.0823866529      -20.3593472131
 O         2.8716122055       -4.6658726908      -19.6027927546
 C         5.1664798568       -4.3693771923      -20.3949348873
 C         4.9214600104       -2.9404854681      -21.1837903192
 O         4.0467365392       -2.1883509240      -20.7902721149
 C         5.8801964366       -2.5915599471      -22.4408206391
 C         6.1340463308       -1.0605184889      -22.5448355709
 C         7.1328679389       -0.3564147607      -21.4689076655
 O         8.1175115928       -0.9188441565      -21.1170980304
 C         6.8945499499        1.1433256498      -21.0058785618
 C         5.3086151014        1.4684306938      -20.6530334806
 O         4.4670366489        0.9713992702      -21.3654813794
 C         5.0295272397        2.5629447912      -19.5521853757
 C         3.5334666675        2.6715981533      -19.1645815447
 C         2.7952292223        1.3369529999      -18.9658021317
 O         3.3444519775        0.3345245616      -18.6324165320
 C         1.2355080907        1.3568023315      -19.2475798419
 C         0.6308976126       -0.0443634939      -18.6746942321
 O         0.6141844841       -1.0059534118      -19.4213649781
 C         0.2592298326       -0.2468552932      -17.1253057108
 C        -0.0954683289       -1.8669251516      -16.9798654360
 C         1.0236823642       -2.6641372449      -16.3218104566
 O         2.0059600755       -3.0993347133      -16.9524638183
 C         0.8635186288       -3.1258519805      -14.8519827301
 C         0.1349994542       -2.1110528461      -13.9699624982
 O         0.3517762508       -0.9586932754      -14.2134791840
 C        -0.6802243330       -2.5916206600      -12.7548000635
 C        -1.5967778839       -1.4714852288      -12.2102973532
 C        -3.1720032587       -1.8801287518      -12.1861911109
 O        -3.4546726658       -2.9069631697      -12.7681471994
 C        -4.3293205979       -1.2372584974      -11.3450458678
 C        -4.7460488113       -2.0740899645       -9.9750933625
 O        -5.0237712488       -1.3572532830       -9.0880583635
 C        -4.7299307050       -3.6035400016      -10.0050396175
 C        -3.3538489972       -4.0023871247       -9.5559288313
 C        -3.1490639620       -4.1233554614       -8.0045709818
 O        -3.9024314494       -3.6452192336       -7.1816078879
 C        -1.7876613061       -4.6982569267       -7.5712863608
 C        -0.7158940498       -3.4742105286       -7.6118151276
 O        -0.0242502076       -3.2939240081       -8.5736422898
 C        -0.5148818204       -2.5635751595       -6.3426412401
 C        -0.3558354399       -1.0959495600       -6.7994639823
 C        -0.2206355565       -0.1098348563       -5.6437028419
 O        -0.3076397493       -0.4571352124       -4.4995346698
 C         0.0510617637        1.4111211043       -5.9241432227
 C        -1.3990877663        2.1886139827       -5.9603416903
 O        -1.8017033753        2.8136438718       -6.8926443387
 C        -2.3517787908        1.7135324442       -4.8051648989
 C        -3.8395678795        1.6959871317       -5.2104914168
 C        -4.4891270502        0.3392018115       -5.0405162293
 O        -4.2013750781       -0.6211997211       -5.7351610518
 C        -5.6241487321        0.1851257452       -3.9594659947
 C        -6.9558501613        0.2311803251       -4.8441748471
 O        -7.0455994482       -0.6428873871       -5.6454015189
 C        -8.0006730285        1.2621751189       -4.5955498507
 C        -8.8014281527        1.7040866550       -5.8945651324
 C        -9.5383065014        0.4214019125       -6.3408501716
 O       -10.0045904770       -0.3200930330       -5.5199000801
 C        -9.5400820149       -0.0503143576       -7.9291674177
 C        -8.7671641918       -1.3575509252       -8.0113909410
 O        -7.8207259254       -1.5767495150       -8.7823611350
 C        -9.2593295219       -2.4418131885       -6.9688009403
 C        -8.9378468208       -3.9014782664       -7.5811585027
 C        -7.8676330444       -4.6314772969       -6.8569223618
 O        -6.7321574840       -4.1548774573       -6.7111549933
 C        -8.1506322412       -6.0925246487       -6.3718390779
 C        -9.3651011058       -5.9496259198       -5.3187784297
 O       -10.4423978955       -6.3724013520       -5.6721557853
 C        -9.0988512414       -5.5044784111       -3.9178647561
 C       -10.3570842176       -5.2616501115       -3.1612872279
 C       -10.9979868023       -3.9096581245       -3.5302307611
 O       -10.3540020327       -3.2234082649       -4.3417083294
 C       -12.3432736957       -3.5513627629       -2.9057885634
 C       -11.8917353248       -2.8207740190       -1.5129966799
 O       -10.9592917692       -3.2790927362       -0.9132989405
 C       -12.7029873028       -1.5584661226       -1.0814331321
 C       -12.1480001048       -0.8646576811        0.1332521545
 C       -12.0161115667        0.6659777986        0.2216314662
 O       -11.9748763716        1.3701327671       -0.7710102253
 C       -12.0826727486        1.2614240686        1.6092698093
 C       -10.6157932788        0.9423474501        2.1661661914
 O       -10.4105055931       -0.0549555150        2.8119954917
 C        -9.5011967765        1.7554737106        1.4128898269
 C       -12.0784818788        2.8421948393        1.6199173772
 C       -13.1965796361        0.6161418195        2.5307597322
 C       -13.0058723772       -2.4375029036       -3.8688779956
 C       -13.3519600243       -4.6657197465       -2.5476050792
 C        -8.5543712261       -7.1795809473       -7.3871616178
 C        -6.8688455413       -6.6336025644       -5.5879909324
 C       -11.0200318598       -0.1683699677       -8.2394557811
 C        -8.8983348314        1.0906251886       -8.8164704808
 C        -5.4992480844       -1.2327892320       -3.4911022186
 C        -5.5520850717        1.1378632917       -2.8060335643
 C         0.8563069669        2.0421356674       -4.7345625537
 C         0.6937936398        1.7080682082       -7.3264254454
 C        -1.9469847407       -5.3375715069       -6.1408074195
 C        -1.3126020312       -5.8767084448       -8.5685237947
 C        -3.8418879764        0.2408290319      -11.0408876228
 C        -5.6497218169       -1.3368086766      -12.1830703151
 C         0.1041306131       -4.5056554910      -14.9404590099
 C         2.2049167991       -3.4100226790      -14.1672300294
 C         0.5649518115        2.6540689584      -18.6410740519
 C         1.0858856571        1.2955106247      -20.8112319843
 C         7.8456172238        1.3789162566      -19.7736181436
 C         7.3401228192        2.0131468070      -22.1761945701
 C         5.6589564548       -4.1299792549      -18.9348710656
 C         6.2103464725       -5.2698163923      -21.0118328946
 H         4.1696390170       -6.3919014747      -22.1514764268
 H         2.4223633096       -6.0647732731      -21.6905794351
 H         3.3786614033       -7.1463211640      -20.7762229551
 H         5.5197275081       -3.1196313634      -23.3527565564
 H         6.8079997561       -3.0349462749      -22.1730327606
 H         5.2177517340       -0.3799487614      -22.6922189606
 H         6.7052948223       -0.8539141065      -23.4181803051
 H         5.2691106627        3.5383826428      -20.0086515443
 H         5.6280737474        2.5330617750      -18.6720096091
 H         2.9484893836        3.2262521222      -19.9269931071
 H         3.4218413265        3.0221738391      -18.1267974289
 H        -0.4271055452        0.4794446224      -16.6713594950
 H         1.2535259150       -0.0850707713      -16.6936173445
 H        -0.1773107859       -2.3930331506      -17.9345375707
 H        -1.0414101559       -1.8484853469      -16.3255343923
 H         0.0841878533       -2.9821281311      -12.0805089608
 H        -1.2497098361       -3.5540465304      -13.0819565833
 H        -1.4676754541       -0.5689735868      -12.8594691702
 H        -1.2715080417       -1.3304158315      -11.1769562930
 H        -4.9298862452       -3.8022605494      -11.0950417292
 H        -5.5950738634       -4.0713496459       -9.4286155972
 H        -2.5816782344       -3.3171011124       -9.9981350090
 H        -2.9480027344       -4.9010246354      -10.0036287082
 H         0.3309594756       -2.9099114957       -5.7928864846
 H        -1.3973994563       -2.6498493456       -5.7498181785
 H        -1.1643572790       -0.8444467453       -7.4878739228
 H         0.4941384091       -1.0217066413       -7.4342590478
 H        -2.2180432506        2.5081848470       -4.0138654560
 H        -1.9751569237        0.7453365655       -4.6082182205
 H        -3.8738001661        1.9450791056       -6.2550405169
 H        -4.5523928531        2.4625585818       -4.7087767437
 H        -7.5366793532        2.1062540898       -4.2043145008
 H        -8.7322283080        0.7784782785       -3.9458280878
 H        -8.0198287142        2.1170782031       -6.6247273876
 H        -9.4907634860        2.5370731184       -5.6910015175
 H       -10.2024221636       -2.0564685184       -6.5441565911
 H        -8.4628206147       -2.4061718423       -6.1496789332
 H        -8.6646872897       -3.8624263085       -8.6743963279
 H        -9.8854906729       -4.4798358811       -7.6026245678
 H        -8.3282159258       -4.7874730176       -3.8329655772
 H        -8.5029492100       -6.1919370720       -3.3345641083
 H       -10.2738263149       -5.2606929103       -2.0501982184
 H       -11.0781435582       -6.0382490470       -3.4512396216
 H       -13.7590034264       -1.7713474898       -0.9812299458
 H       -12.7302836068       -0.9526135762       -1.9531583773
 H       -11.0801907600       -1.2195238660        0.2475800740
 H       -12.6801119127       -1.2314551277        1.0268250275
 H        -8.6048460592        1.1464697544        1.6565649480
 H        -9.4588898601        2.7358142008        1.7913682766
 H        -9.8622470419        1.8140213778        0.4160165005
 H       -11.4310036354        3.2407908595        2.4296504434
 H       -13.0914839816        3.2905130003        1.4820195833
 H       -11.4930738439        3.1467920419        0.6697270308
 H       -14.0848554236        0.5892869099        1.8313183578
 H       -13.4966008174        1.1499320499        3.4039457682
 H       -12.8865374585       -0.4259688335        2.7268941867
 H       -13.3219879219       -2.8655893142       -4.7703126311
 H       -12.1127409337       -1.7462643659       -3.9828727378
 H       -13.9397231631       -1.9158798033       -3.6329670721
 H       -14.1232293504       -4.1422283675       -1.9500233751
 H       -12.9982349299       -5.4803905757       -1.7945663611
 H       -13.7047242719       -5.2075864174       -3.5308014553
 H        -9.5848319284       -6.9774486132       -7.7677221443
 H        -8.5129238461       -8.1265158016       -6.8961001881
 H        -7.7759269073       -7.3193051576       -8.1555104580
 H        -6.0343676152       -6.6274168033       -6.2655667766
 H        -7.0622119768       -7.5890054948       -5.1763951146
 H        -6.7036090469       -5.9000893722       -4.7642665482
 H       -11.2263230220       -1.1117122775       -8.8049171306
 H       -11.3374838831        0.6271128043       -8.8763427375
 H       -11.6199150314       -0.2136566433       -7.3843432056
 H        -7.7744252956        0.9942770810       -8.7879829329
 H        -9.2316941029        2.1194272407       -8.5909134464
 H        -9.2180254476        0.8754861963       -9.8112040345
 H        -6.3818356835       -1.5580796306       -2.9525235356
 H        -4.6304481131       -1.5195584460       -3.0050417614
 H        -5.5631559843       -1.9472679553       -4.4051928421
 H        -6.3221928083        1.0238947418       -2.0652383184
 H        -5.7010862961        2.2047269934       -2.9824270754
 H        -4.5797806264        1.0624456178       -2.2275876648
 H         1.7849439320        1.5292611310       -4.7042487576
 H         0.4148137232        1.9808328776       -3.7407718630
 H         1.1977826591        3.1312401925       -4.9375650066
 H         0.2737069640        1.0249125295       -8.0809540493
 H         1.8146763609        1.4162415379       -7.2594310948
 H         0.6118373348        2.7417349668       -7.6904044694
 H        -1.1382019799       -5.9426154527       -5.8639223057
 H        -2.8067782130       -5.9803861062       -6.0586059290
 H        -2.0413503408       -4.4689051248       -5.4830784971
 H        -0.5833989037       -5.4941681104       -9.1834905143
 H        -2.0981752800       -6.3554843661       -8.9950271824
 H        -0.8171825752       -6.6165582123       -7.9853205519
 H        -3.4128624019        0.7080307478      -11.9819931932
 H        -3.0550619747        0.0907789677      -10.2534695638
 H        -4.5917539286        0.8008599988      -10.5364014525
 H        -5.8566969580       -0.3682534653      -12.6008565691
 H        -6.4687539467       -1.3527005532      -11.5168629383
 H        -5.7195957579       -2.2066359683      -12.8411533248
 H         0.5560104202       -5.1530935484      -15.6793900024
 H        -0.8616762257       -4.2496414672      -15.2281395492
 H        -0.0672665214       -4.9865309360      -14.0420412390
 H         2.7609119832       -4.1992819150      -14.6032235465
 H         2.0634235202       -3.5460385530      -13.1284649309
 H         2.8979826335       -2.6225124103      -14.3403327005
 H        -0.4515385591        2.5520920481      -18.2584874093
 H         0.6626545403        3.4533524645      -19.3557222512
 H         1.1935476482        2.8672537267      -17.7282498875
 H         1.5146135802        2.2697569779      -21.2926735127
 H         0.0265614310        1.1717619382      -20.9607597596
 H         1.5860069477        0.4064558894      -21.0558831369
 H         8.9625486603        1.6158685841      -20.1398912264
 H         7.9702727804        0.5375253371      -19.1145989611
 H         7.5477522311        2.2254351928      -19.1802555675
 H         7.3223404627        3.0708698539      -21.9792834607
 H         6.8331222833        1.8368180582      -23.0605829227
 H         8.3939845980        1.8473060268      -22.2623493088
 H         6.3587780279       -3.2885585397      -18.8593936469
 H         6.2993898439       -4.9989258439      -18.6241696876
 H         4.8500322658       -3.9236856179      -18.2117769463
 H         6.0355144667       -5.4954637825      -22.0312527938
 H         6.2264116461       -6.1888363588      -20.5237854156
 H         7.2132581842       -4.8774197996      -20.8066031163
 Na        2.5835473115       -2.1144454755      -19.2045760905
 Na       -5.7480323403       -2.0878486942       -7.0819065369
