232

 C         3.5950465751       -5.7414624114      -21.8202171050
 C         3.9512583773       -4.7840895394      -20.6571012951
 O         2.9432409894       -4.4825639508      -20.0088417728
 C         5.3275841907       -4.0684653754      -20.4288322626
 C         5.1402330781       -2.6819091082      -21.2035895658
 O         4.2415132629       -1.9523595295      -20.9175248748
 C         6.2968434965       -2.2069475940      -22.1562617549
 C         6.5238699652       -0.7222037211      -22.3366524885
 C         6.8648381681        0.0112351483      -21.0490277834
 O         7.3442356055       -0.5669319615      -20.0782786725
 C         6.7985743489        1.6194073311      -21.0304370627
 C         5.2563591591        1.7674600156      -20.7522229345
 O         4.4418953363        1.6931067435      -21.6402367792
 C         4.7879868165        1.9150398465      -19.3121148038
 C         3.2643728157        2.1446478482      -18.9328884681
 C         2.4322014687        0.9076239657      -19.4253742961
 O         3.0018327805       -0.1772075178      -19.4589259061
 C         0.8234688819        1.0206522630      -19.4713543210
 C         0.4467283141       -0.3577247745      -19.0065809899
 O         0.5975328520       -1.2835847883      -19.7841711493
 C         0.0428323265       -0.5477783454      -17.5701926953
 C        -0.4114575988       -1.9341763046      -17.1292097660
 C         0.7750971673       -2.5764517356      -16.3339758131
 O         1.8769449167       -2.6666058862      -16.7731999091
 C         0.4008136601       -3.2642725607      -14.9018075521
 C        -0.3077910097       -2.3029493730      -13.9514635815
 O        -0.1797080402       -1.0947500711      -14.0872262540
 C        -0.9942689394       -2.7322045515      -12.6745000021
 C        -1.9846871860       -1.6934865895      -12.0484939745
 C        -3.4181462026       -2.2639781649      -12.0508873610
 O        -3.6326279440       -3.4405600179      -12.2663413768
 C        -4.5555674188       -1.3763261203      -11.4763542127
 C        -4.6740214744       -1.7683467715       -9.9674261016
 O        -4.8787297122       -0.9131994868       -9.0936442727
 C        -4.6830217520       -3.3160830835       -9.6561866865
 C        -3.3123395588       -3.9561151287       -9.3848888870
 C        -2.9470411748       -4.2401671223       -7.9026066550
 O        -3.6114263619       -3.7261437696       -7.0020081295
 C        -1.4828179752       -4.8756066800       -7.3896440103
 C        -0.6509226270       -3.4981242295       -7.5538606695
 O        -0.0147586833       -3.3410969859       -8.5980949214
 C        -0.7915154043       -2.5404553289       -6.3902908534
 C        -0.3363464422       -1.1560743813       -6.7743005585
 C         0.0490685392       -0.1911378604       -5.5990159423
 O         0.3049184802       -0.5953843163       -4.4770746279
 C         0.2140808383        1.3652025038       -6.0011343700
 C        -1.2289649594        1.9601346701       -5.9401058122
 O        -1.7445832250        2.5888139261       -6.8371604415
 C        -2.1784098431        1.7154870281       -4.6638649630
 C        -3.6477002463        1.9032504590       -4.9989150804
 C        -4.2916864690        0.4961617682       -4.8445866095
 O        -3.9088008032       -0.3230707327       -5.6923048399
 C        -5.4005690245        0.1983067455       -3.8311005906
 C        -6.7717715705        0.2734284086       -4.6703972289
 O        -6.7894763765       -0.5527917698       -5.5794827982
 C        -7.7342755780        1.4518087701       -4.5200776755
 C        -8.5502134784        1.6277785572       -5.8464019598
 C        -9.3353401825        0.3938210829       -6.3106864504
 O       -10.0837309557       -0.2588783965       -5.5914295444
 C        -9.2228988482       -0.0664282751       -7.8718415003
 C        -8.6816762717       -1.6037547675       -7.9266813537
 O        -7.6842474050       -1.8491254905       -8.5704424155
 C        -9.3744505207       -2.7997266243       -7.1839802255
 C        -8.8615778269       -4.1289127896       -7.7247699981
 C        -7.7426916494       -4.7381610282       -6.8983298154
 O        -6.6643846822       -4.2075226540       -6.8009500053
 C        -7.9946753733       -6.2053215436       -6.3515809959
 C        -9.3481547622       -5.9862651246       -5.3943148339
 O       -10.4246290521       -6.1106257399       -5.9187340902
 C        -9.0926995992       -5.6162129943       -3.9298000500
 C       -10.3659048473       -5.2499533012       -3.1932471751
 C       -11.0645195536       -3.9805281482       -3.7051585161
 O       -10.5127379965       -3.2311100047       -4.4512858514
 C       -12.4413963796       -3.4990242824       -2.9756020534
 C       -12.0250963719       -2.8935648349       -1.5387813285
 O       -11.5600506664       -3.6116701777       -0.6648151141
 C       -12.3419964395       -1.3710770296       -1.2152501072
 C       -12.2943709421       -0.9374454310        0.2417631815
 C       -12.3578116005        0.6646378716        0.3371968698
 O       -12.8154181362        1.3085963819       -0.5889714417
 C       -11.8713659268        1.3180327223        1.6710345271
 C       -10.2964643801        1.1427231506        1.9385546830
 O        -9.8640525814        0.0392817641        2.2274344300
 C        -9.4090329706        2.4074635145        1.7991010680
 C       -12.0739086334        2.8652972934        1.5916697106
 C       -12.7049324505        0.8587537124        2.9115843951
 C       -13.1673007622       -2.5720201597       -3.8979335404
 C       -13.3001705000       -4.8058194541       -2.7009434637
 C        -8.3854945966       -7.1240027336       -7.4776984937
 C        -6.8425957083       -6.5875739606       -5.4840670720
 C       -10.7883719085       -0.2035729062       -8.3233694532
 C        -8.3501838084        0.7458417250       -8.8848927586
 C        -5.2867595718       -1.2771289251       -3.3986543390
 C        -5.3850089262        1.0753319517       -2.6449167910
 C         1.1475654806        1.9666377920       -4.9304731571
 C         0.7952989360        1.5082007716       -7.4334631324
 C        -1.5325660463       -5.3173198579       -5.8825760804
 C        -0.8817333469       -5.9850419216       -8.2719173302
 C        -4.2723855249        0.0458854941      -11.5821917702
 C        -5.9829884980       -1.5659651915      -11.9741954583
 C        -0.6233814450       -4.3952445567      -15.1770875778
 C         1.7060797765       -3.6520398944      -14.2427075837
 C         0.3348412881        2.2719390737      -18.6858194817
 C         0.4469320507        1.3088297815      -21.0585667782
 C         7.7076126462        2.0602045841      -19.8365739018
 C         7.4203346140        2.2053028218      -22.2564969761
 C         5.5915749878       -4.0813602016      -18.8036811003
 C         6.4130360635       -4.8205773995      -21.1432004919
 H         2.6129313817       -5.5290080250      -22.2347457436
 H         3.5632666800       -6.7521044169      -21.3906935402
 H         4.3354315850       -5.7031791130      -22.6598479082
 H         6.0113032511       -2.6273945567      -23.1247277349
 H         7.2099880904       -2.7546776148      -21.9143715935
 H         5.6623116310       -0.2007915408      -22.7849568524
 H         7.3855275984       -0.6113214878      -23.1201775503
 H         5.3067160062        2.7593287066      -18.8462332701
 H         5.0742650717        1.0107068264      -18.8441908584
 H         2.8792304646        2.9707713613      -19.5322067259
 H         3.0577029225        2.1354778902      -17.8403027462
 H        -0.7788643585        0.2150321417      -17.5651626306
 H         0.8193965554       -0.1118246293      -16.9337480178
 H        -0.6033936157       -2.4931777075      -18.1169001290
 H        -1.2777220867       -1.8484577549      -16.5051490854
 H        -0.1470831144       -2.9578360287      -11.8785703143
 H        -1.4158056532       -3.7654109229      -12.7662416359
 H        -1.9568988308       -0.7955127146      -12.6939151372
 H        -1.6446986027       -1.5680438734      -11.0384153623
 H        -5.1861582879       -3.9642468653      -10.4440975651
 H        -5.4106625747       -3.4264086458       -8.8244249447
 H        -2.4560388713       -3.2819142069       -9.6172953971
 H        -3.2406255066       -4.7927119757      -10.1079578297
 H        -0.1936755269       -2.9630107505       -5.5617651985
 H        -1.7651150530       -2.4862554695       -6.0479658988
 H        -1.2069301486       -0.6857115604       -7.1769516830
 H         0.4596073155       -1.1305015439       -7.5074641398
 H        -1.9034160673        2.4344741574       -3.8560883342
 H        -1.9183450596        0.6765391897       -4.3255736195
 H        -3.8812357913        1.9672289501       -6.0875213396
 H        -4.1969410591        2.6498580465       -4.4988116250
 H        -7.1669296406        2.3884143150       -4.1934279577
 H        -8.4298429281        1.2610565447       -3.7924812808
 H        -7.9047380552        2.0520490106       -6.6207689065
 H        -9.2321630855        2.5220574770       -5.7742065230
 H       -10.4562528748       -2.7173227865       -7.3202357000
 H        -9.1740321903       -2.4245071453       -6.1276918614
 H        -8.3801193954       -3.9337587471       -8.7153996320
 H        -9.8452843809       -4.6517474430       -7.8937775983
 H        -8.2907665249       -4.8888138200       -3.8156944002
 H        -8.6083795557       -6.3446214235       -3.3136080013
 H       -10.3125213594       -5.1163207990       -2.1168775561
 H       -11.1441562966       -6.0273253944       -3.3746348842
 H       -13.2442835089       -1.1015167930       -1.6937924938
 H       -11.5100078109       -0.8780780026       -1.7487666288
 H       -11.3828778914       -1.3383795157        0.7276642142
 H       -13.2340524742       -1.2834991798        0.7703309417
 H        -8.4600929518        2.0635846276        2.0320291147
 H        -9.8631971773        2.9958438390        2.5730688318
 H        -9.4164583874        2.8139047465        0.7817575759
 H       -11.8305937572        3.3365173273        2.5892035938
 H       -13.1712294396        3.1340094960        1.5942546939
 H       -11.5413779984        3.3129832540        0.7596411603
 H       -13.7213054858        1.0284233430        2.6798528594
 H       -12.5821583000        1.6078594945        3.7391510388
 H       -12.3621269634       -0.1188771117        3.2783681494
 H       -13.3753976602       -3.1488605104       -4.8453791419
 H       -12.5545393064       -1.8166441558       -4.3403838382
 H       -14.0777408881       -2.2219632298       -3.3674796666
 H       -14.3341096793       -4.6164048153       -2.1673128276
 H       -12.7526439844       -5.4184673807       -1.9076437908
 H       -13.3707194234       -5.4472136062       -3.6516156004
 H        -9.2100909928       -6.6888331605       -8.0007299434
 H        -8.7244884581       -8.1677367323       -7.1682469527
 H        -7.5293229908       -7.1603864902       -8.1978628446
 H        -6.1372687809       -7.1528745101       -6.0720815331
 H        -7.1271496804       -7.2379604378       -4.6264542789
 H        -6.4143617039       -5.6995558333       -5.1254721089
 H       -10.9829935818       -0.3660396160       -9.3278094840
 H       -11.2162774153        0.7176273454       -8.0228547440
 H       -11.2338585983       -1.0349087774       -7.7545242881
 H        -7.3573667111        0.5426794938       -8.7295068759
 H        -8.3420299220        1.8045745198       -8.6607594459
 H        -8.5463888907        0.4600103016       -9.9400686356
 H        -6.0560529557       -1.5805535698       -2.7047348176
 H        -4.4377556346       -1.5244295885       -2.7102290667
 H        -5.1802378991       -1.9323004978       -4.1661917319
 H        -6.1195170845        0.7585902327       -1.8284265862
 H        -5.5232088818        2.1432621922       -2.8674517483
 H        -4.4010458947        1.0103680729       -2.1508461873
 H         2.1390381609        1.4001467695       -4.9835425740
 H         0.6257598754        1.9052624521       -3.9717568498
 H         1.3511357687        2.9800092173       -5.0432794680
 H        -0.0648386343        1.6333318417       -8.1330728912
 H         1.5172910380        0.7610371499       -7.6268300646
 H         1.4357892294        2.4403568402       -7.5526656578
 H        -0.4942490635       -5.2879624502       -5.5965997170
 H        -1.9971347075       -6.2661508124       -5.7867743511
 H        -2.1689149792       -4.7325486749       -5.2859934385
 H        -0.5279093882       -5.5786447246       -9.1854124242
 H        -1.6735305445       -6.6900555208       -8.4563385231
 H        -0.1310099441       -6.4821278243       -7.8008578201
 H        -4.1604139430        0.2632843252      -12.6583558138
 H        -3.3759460337        0.3709621524      -11.0560428545
 H        -5.1405529218        0.7255230059      -11.2297968593
 H        -6.1054559216       -1.1901549248      -12.9468999585
 H        -6.7338248436       -1.1147499565      -11.2879918786
 H        -6.1266909136       -2.6093103666      -12.0392364410
 H        -0.1447096982       -5.1082066465      -15.7460323223
 H        -1.4449098028       -4.0208584187      -15.7383999961
 H        -0.9058567368       -4.9076130771      -14.2846413285
 H         2.5001500703       -3.8465204650      -14.8937132502
 H         1.6356670594       -4.4347672978      -13.5262781988
 H         2.0493450059       -2.8325469191      -13.6649428798
 H        -0.7550469409        2.2291987753      -18.4459603066
 H         0.4426491926        3.0892419256      -19.4257353377
 H         0.9191204827        2.6381735222      -17.8391397415
 H         0.6015577750        2.2712052724      -21.2396627895
 H        -0.6292123363        1.0790868317      -21.0139495987
 H         0.9374288441        0.5699983980      -21.7657331131
 H         8.6410749664        1.6268056977      -19.8773915652
 H         7.2874126080        1.9514562992      -18.7919260676
 H         7.9318254952        3.1462379864      -19.7888323672
 H         7.5569539738        3.2450603552      -22.1856056312
 H         6.7727030682        2.0486855797      -23.1403795309
 H         8.3485928782        1.7453381795      -22.4578046773
 H         6.6439284462       -4.0680795880      -18.5188982243
 H         5.2308994378       -4.9977168871      -18.3247526967
 H         4.9563497676       -3.3123526199      -18.2935864691
 H         6.1894781651       -4.6244125095      -22.1648184194
 H         6.5368076755       -5.8878631544      -21.0436797163
 H         7.3246897300       -4.3712641240      -20.9362381760
 Na        2.6431456316       -2.3531082751      -19.0712701021
 Na       -5.4131297830       -1.8903156921       -7.0987855204
