232

 C         3.8392644630       -5.7257051874      -21.9024591635
 C         3.8761783007       -4.7333534366      -20.8257021108
 O         2.9010553637       -4.4701067962      -20.1577241555
 C         5.2869467166       -4.0754238978      -20.6572827589
 C         5.2930026415       -2.6179833906      -21.2300356210
 O         4.4813992771       -1.8131328283      -20.7521782767
 C         6.5081974821       -2.1151656508      -22.0863446005
 C         6.7754476947       -0.5937010640      -22.1156104488
 C         6.8432834152        0.1454166172      -20.8128838661
 O         6.7374793865       -0.4597608660      -19.7600960390
 C         6.8101429759        1.7165775392      -20.9863946798
 C         5.2467532846        1.9520059861      -20.7542803877
 O         4.5498395076        2.2081991276      -21.7341988035
 C         4.7259702647        1.8545132923      -19.3048138966
 C         3.2669844396        2.1119527426      -19.1627573325
 C         2.3810093942        0.8720182718      -19.3866198115
 O         2.9174240434       -0.2082174860      -19.5017265609
 C         0.8333030104        0.9507894358      -19.5317776194
 C         0.3219704494       -0.4439589757      -19.0628235538
 O         0.3281273611       -1.4477568946      -19.7821790583
 C        -0.5580111761       -0.5805075196      -17.7263443135
 C        -0.4424928379       -2.0542503576      -17.2463774838
 C         0.7116961763       -2.5328832026      -16.3256868010
 O         1.8945021646       -2.5792847419      -16.6794376732
 C         0.2868557267       -3.2531469643      -14.9640192009
 C        -0.3949591489       -2.1719407954      -13.9617858212
 O        -0.3758445809       -1.0074405464      -14.2268106459
 C        -1.0300071196       -2.7297726625      -12.7291180421
 C        -2.0443135320       -1.8333210688      -12.0557145214
 C        -3.4586243191       -2.4081243292      -11.9646509368
 O        -3.7401055249       -3.5464497497      -12.3178279415
 C        -4.5436665027       -1.5366622267      -11.2912521228
 C        -4.5755303136       -1.8437330710       -9.7463273209
 O        -4.6068450409       -0.9528376232       -8.9546112363
 C        -4.7367344663       -3.3455919863       -9.4814783101
 C        -3.3354640581       -4.0799375207       -9.2154889591
 C        -2.9525460242       -4.0241530827       -7.6929005090
 O        -3.6274516515       -3.5085196823       -6.8349421375
 C        -1.5528119831       -4.5985777435       -7.3676105298
 C        -0.6406123011       -3.3880341606       -7.5196457398
 O        -0.0129757540       -3.2188194550       -8.5218909607
 C        -0.6803518167       -2.3929863517       -6.3797473984
 C        -0.2928590466       -0.9799631165       -6.8957678940
 C         0.1647410327       -0.1657756076       -5.7303619630
 O         0.2136896464       -0.7115404108       -4.6314858048
 C         0.4231931933        1.3485323732       -6.0093916119
 C        -1.0638730200        1.9005784722       -5.9866408551
 O        -1.6224186462        2.2238054785       -7.0262209154
 C        -1.7885186659        1.7402469251       -4.6101285850
 C        -3.3409457404        1.7740133693       -4.6642852789
 C        -4.1144035014        0.3872634610       -4.7976429767
 O        -3.9342926694       -0.2544833465       -5.8045327016
 C        -5.3437701622        0.0786598308       -3.9242907213
 C        -6.7013030486        0.1279943552       -4.8376738360
 O        -6.8596942838       -0.6766123640       -5.7228998675
 C        -7.7758517208        1.2078205749       -4.6111514642
 C        -8.4342423981        1.6223774426       -5.9242885950
 C        -9.2708968602        0.3480905695       -6.3419274515
 O        -9.8270479025       -0.3581474173       -5.5640908551
 C        -9.2136255027       -0.1082209521       -7.9416216219
 C        -8.4942811555       -1.5304231996       -7.8668296479
 O        -7.3273637265       -1.6919331816       -8.2037333390
 C        -9.3747923631       -2.7588324056       -7.3440945602
 C        -8.7809454032       -4.1334069156       -7.8356232398
 C        -7.7685640368       -4.6552877438       -6.8977498839
 O        -6.8496733654       -3.9050841556       -6.4833376367
 C        -8.0188465048       -6.0763419954       -6.2832683011
 C        -9.3970155269       -5.9002087742       -5.3848324821
 O       -10.5133090763       -6.1454363655       -5.8310419231
 C        -9.1137521759       -5.4868890784       -3.9661865420
 C       -10.4665140258       -5.3409174306       -3.1941730925
 C       -11.1395938344       -3.9522260708       -3.5155403629
 O       -10.5459740017       -3.1954925528       -4.2924601861
 C       -12.4132989304       -3.5342054342       -2.8706447590
 C       -11.9454482496       -2.8947678705       -1.4518811782
 O       -11.6747224537       -3.7206741417       -0.6366484841
 C       -12.0424357588       -1.3579354726       -1.2734398631
 C       -12.0974731998       -0.9553122611        0.2181107910
 C       -12.2971331393        0.6116996839        0.3185768575
 O       -12.9065653115        1.2536277021       -0.4905189523
 C       -11.8940840337        1.3518962945        1.6345500792
 C       -10.2868438887        1.1908554031        1.7272381619
 O        -9.8640612339        0.0557174658        1.7004737863
 C        -9.3150518933        2.4438370335        1.9326049577
 C       -12.3355041898        2.8727800678        1.5578793628
 C       -12.5621399839        0.5997935447        2.7973803751
 C       -13.1607725889       -2.4865159508       -3.8095212362
 C       -13.3347393833       -4.7588909049       -2.6485883144
 C        -8.3664900648       -7.2015286829       -7.3168058512
 C        -6.7587476060       -6.5764594257       -5.4266302531
 C       -10.6188506175       -0.1551000270       -8.5530781218
 C        -8.3226176875        0.8573387007       -8.7891362412
 C        -5.2156463045       -1.3076201913       -3.4196577944
 C        -5.4816545396        0.9757300481       -2.7392769985
 C         1.2389586195        1.9806940910       -4.8771985152
 C         0.9741094623        1.5671421321       -7.4090858140
 C        -1.6486139637       -5.2393939955       -5.9451202666
 C        -1.1682158461       -5.7220998000       -8.3864806942
 C        -4.4674283525        0.0014702480      -11.5311881517
 C        -5.8597219087       -2.0726380358      -11.8164077237
 C        -0.6262397432       -4.4518844122      -15.4551150594
 C         1.3916597014       -4.0090057426      -14.0999822661
 C         0.2443780915        2.1055867940      -18.7416969058
 C         0.6293720755        1.2107119206      -21.0564322181
 C         7.5196308440        2.4274556230      -19.8377227329
 C         7.1542998131        2.2675416126      -22.3744782872
 C         5.4885158024       -3.8628236268      -19.1021730158
 C         6.4330623702       -5.0880166077      -21.0920769797
 H         2.8564029295       -6.1172561978      -21.8528482359
 H         4.5335584111       -6.5209946007      -21.7400091587
 H         3.9760346992       -5.2670118075      -22.8535811138
 H         6.3148639934       -2.5167539824      -23.1343337349
 H         7.3640134870       -2.7292675625      -21.7432191142
 H         5.9664736486       -0.0632757121      -22.6857638882
 H         7.6430241104       -0.4212127204      -22.6722354738
 H         5.1295727758        2.6375669154      -18.6634957156
 H         4.9205996760        0.8452074675      -18.8479221394
 H         2.9152667249        2.9866153463      -19.7104619902
 H         3.0730224259        2.1950739411      -18.0947274914
 H        -1.5839297834       -0.3285248705      -17.9932991464
 H        -0.3095083504        0.0560436100      -16.8540174588
 H        -0.5240153297       -2.7253426833      -18.0399649981
 H        -1.3780183805       -2.1382593762      -16.6189077117
 H        -0.3161237771       -3.1346411480      -12.1161058496
 H        -1.5487893769       -3.6528140416      -13.0397433587
 H        -2.0937476091       -0.8625064900      -12.5324439371
 H        -1.7668951579       -1.7474097465      -10.9787041235
 H        -5.2615844949       -3.8110675086      -10.2771793423
 H        -5.4462055386       -3.4079666989       -8.6706133633
 H        -2.5849458745       -3.5167249322       -9.7715192741
 H        -3.3892979409       -5.1021618566       -9.5886073896
 H        -0.0210596482       -2.5935483585       -5.5209223041
 H        -1.7322957035       -2.3359934715       -5.8958945171
 H        -1.1431721773       -0.4081102577       -7.3548289205
 H         0.5884145670       -1.0268362782       -7.5690961919
 H        -1.5339792961        2.6727531135       -4.0765295922
 H        -1.2121609877        0.9623041625       -4.1353209892
 H        -3.6943973917        2.3022998474       -5.5383988912
 H        -3.8383877617        2.2402291599       -3.7469115928
 H        -7.3216091185        2.0830154371       -4.1802720711
 H        -8.6262234478        0.9274828069       -3.8554158306
 H        -7.6230844322        1.9407853708       -6.6015620557
 H        -8.9292783329        2.5442906108       -5.8006965427
 H       -10.3920193361       -2.5501291244       -7.6587916719
 H        -9.4100660238       -2.8391020043       -6.2822678032
 H        -8.2275607263       -4.1173230155       -8.7823675823
 H        -9.6633518445       -4.7302024110       -7.8895166896
 H        -8.3690684500       -4.6551778085       -3.8416222759
 H        -8.5198731883       -6.3039212788       -3.4107389559
 H       -10.4680367564       -5.3567942058       -2.0955851943
 H       -11.1062121066       -6.1226537488       -3.5440711477
 H       -13.0362115186       -1.1028520885       -1.7554218065
 H       -11.1607068847       -0.9667727026       -1.7962412976
 H       -11.1610485628       -1.1510248302        0.7283437175
 H       -12.9124440424       -1.4644867706        0.6805770999
 H        -8.2624409353        2.0637152135        1.7512410416
 H        -9.5686620964        2.8662791107        2.9214339966
 H        -9.4980832792        3.0357090273        1.0333316601
 H       -12.0606982539        3.5860457947        2.3355273719
 H       -13.4159145111        2.9815928758        1.5031253020
 H       -11.9361005112        3.1222840045        0.5117669250
 H       -13.6605361403        0.6960616432        2.5884194756
 H       -12.3859192522        0.9233848344        3.7970385720
 H       -12.1416643209       -0.3894209256        2.6535085629
 H       -13.2119632114       -2.8537872564       -4.7598900388
 H       -12.4687337220       -1.6421691882       -3.9922450704
 H       -14.0464702748       -2.1428080413       -3.3413430805
 H       -14.3057328030       -4.4232050233       -2.4818780751
 H       -13.0161137703       -5.4680127974       -1.9834830509
 H       -13.4535134772       -5.1925810186       -3.5732160617
 H        -9.3753509860       -7.1981362009       -7.7477882922
 H        -8.3318817020       -8.0873536267       -6.7572283645
 H        -7.6480113232       -7.1969229066       -8.1179203079
 H        -5.9359067624       -6.6689747908       -6.1567550568
 H        -6.8875798524       -7.5584251394       -5.0215787874
 H        -6.4242500228       -5.8276663336       -4.6278556720
 H       -10.7063490890       -1.2110875510       -8.9945260312
 H       -10.7126484614        0.5939470841       -9.3653655011
 H       -11.4143564279       -0.1487070022       -7.8131277419
 H        -7.2171208044        0.8921916765       -8.5616888494
 H        -8.6074054319        1.9133295900       -8.8397069599
 H        -8.3803248650        0.4707568716       -9.8036928503
 H        -5.9026336297       -1.5807910701       -2.6416118347
 H        -4.3404060191       -1.4397873684       -2.8422661409
 H        -5.1285712041       -2.1507724094       -4.1344048109
 H        -6.1697669148        0.4671746889       -2.1024538723
 H        -5.7459594197        2.0262994147       -2.8544960512
 H        -4.5507804559        0.9529855155       -2.1213138768
 H         1.9992715149        1.2460416911       -4.6935669448
 H         0.8106036465        2.2340228151       -3.9418356404
 H         1.7148243048        2.8308595779       -5.3498007011
 H         0.2905464918        1.2298184538       -8.1532562324
 H         1.9860196212        1.1089144705       -7.4004354463
 H         1.1865636723        2.5994429512       -7.5818100097
 H        -0.6651179295       -5.4673970996       -5.5839803494
 H        -2.4617169047       -5.9950239295       -5.9908628305
 H        -2.1866590418       -4.5085689003       -5.2552932382
 H        -0.9415956515       -5.3010300558       -9.4107672179
 H        -1.9420170137       -6.4407020114       -8.6004900913
 H        -0.2576474179       -6.2494630386       -7.9521524997
 H        -5.0926180501        0.4679975435      -12.2550940128
 H        -3.4589772728        0.2443314500      -11.7917092253
 H        -4.6953936226        0.4949000724      -10.6268689104
 H        -6.2906741581       -1.3103645010      -12.5240438764
 H        -6.5302933403       -2.1756121166      -10.9499092785
 H        -5.8379830267       -3.0520344327      -12.4098749441
 H        -0.2646425370       -5.0081023569      -16.3934895868
 H        -1.5585113757       -4.0017812806      -15.8023725565
 H        -0.7313651664       -5.2085425843      -14.6870820508
 H         2.0649776704       -4.6138661649      -14.7722678929
 H         1.0790626966       -4.6674300638      -13.2782417675
 H         2.0563934836       -3.2800173487      -13.5784180666
 H        -0.7831559784        2.1711476186      -18.9685027830
 H         0.6295487846        3.0748078337      -18.7774109413
 H         0.3611026358        1.7991594690      -17.6982927703
 H         1.3300544267        2.1209605767      -21.2287893591
 H        -0.3727617690        1.3836697910      -21.3340209692
 H         1.0243911674        0.3588307151      -21.5178759932
 H         8.4225471507        2.8826928480      -20.2565548115
 H         7.8558880155        1.8972384051      -18.9956392979
 H         7.0177507665        3.2932619296      -19.4487277277
 H         6.8846520369        3.3630655401      -22.2902695100
 H         6.7776233443        1.8988857605      -23.2830176125
 H         8.2844687230        2.1665484903      -22.5292665813
 H         6.3086099565       -3.1582204376      -18.9826101773
 H         5.7966178255       -4.7390739917      -18.5315860267
 H         4.6192601564       -3.4772271440      -18.5901209871
 H         6.5083410804       -5.3017923149      -22.1873483014
 H         6.1920873847       -6.0375154510      -20.6044136154
 H         7.4775506718       -4.6969588700      -20.8037136042
 Na        2.5770756033       -2.4933601508      -19.1439821953
 Na       -5.5078521645       -1.9151696517       -7.0288611464
