232

 C         3.7467242643       -5.8552046749      -22.0986046128
 C         3.9186465105       -4.8408467867      -20.9361136911
 O         2.9237720731       -4.4167921276      -20.3491715708
 C         5.3401164050       -4.1104797395      -20.5395113867
 C         5.4299142396       -2.6338597687      -21.2219148445
 O         4.6173041660       -1.8590062478      -20.8091415497
 C         6.6992827617       -2.1096883965      -21.9583960983
 C         6.7644516253       -0.6557884785      -22.1796529862
 C         6.6889576443        0.1821862805      -20.7756793198
 O         6.5778630050       -0.2882687469      -19.6384062770
 C         6.7304822937        1.8226199532      -20.8956791964
 C         5.2142698191        2.0992652361      -20.7006655949
 O         4.5412968088        2.4574102964      -21.6505246601
 C         4.6179303631        1.8682296556      -19.3289720522
 C         3.0874442605        2.2437512956      -19.2672015703
 C         2.3844384292        0.8407892536      -19.2890589380
 O         3.0117773933       -0.2004674411      -19.3925614752
 C         0.8037410246        0.8332689288      -19.4288716193
 C         0.1372739731       -0.5376032062      -19.0546296210
 O         0.3303933604       -1.4912386311      -19.8127975504
 C        -0.5902855332       -0.7427702757      -17.7559082710
 C        -0.5044275213       -2.2162000701      -17.1665185971
 C         0.7070884302       -2.5550370743      -16.3539820153
 O         1.8432497076       -2.4935545397      -16.7454919530
 C         0.2220157581       -3.2782848131      -15.0691902681
 C        -0.5216548172       -2.2807827132      -14.0885412904
 O        -0.4864499167       -1.0767077257      -14.3786969909
 C        -1.0651498894       -2.8124754792      -12.7579515055
 C        -2.0423934940       -1.8857655970      -12.0672947845
 C        -3.4667795736       -2.4254638864      -11.9467155698
 O        -3.7140923067       -3.5420969365      -12.3840061175
 C        -4.6491229541       -1.5841801970      -11.2618249207
 C        -4.5821352950       -1.9102100403       -9.7425715010
 O        -4.3590713176       -1.1420212367       -8.8259469193
 C        -4.8246345386       -3.3787043321       -9.4276457191
 C        -3.4794954410       -4.0773595848       -9.0761411052
 C        -2.9904635483       -3.9382897371       -7.6646079211
 O        -3.6362280455       -3.3770215069       -6.7786003611
 C        -1.6574384682       -4.6045587892       -7.3441057138
 C        -0.6535329779       -3.3765333043       -7.5142661023
 O         0.0031780263       -3.1663752588       -8.5194253622
 C        -0.5971121435       -2.3530822773       -6.4144826812
 C        -0.2103647312       -0.9975836764       -7.0013389101
 C         0.2177299017       -0.1379191049       -5.7656696504
 O         0.2807181001       -0.6109614646       -4.6315993690
 C         0.5034505123        1.4087535931       -6.0024495763
 C        -1.0177625849        1.8467779790       -5.9895195879
 O        -1.7004481579        2.0794629607       -6.9888516087
 C        -1.6498431854        1.7814602318       -4.5612893542
 C        -3.1885498140        1.7079850821       -4.5921351227
 C        -4.0832527942        0.4218814149       -4.9292227407
 O        -3.9239457339       -0.3031250822       -5.9081125472
 C        -5.3748282342        0.0817511582       -3.8962909255
 C        -6.6339341751        0.1930708718       -4.8261550515
 O        -6.8076978895       -0.6939235038       -5.6607876990
 C        -7.7258309996        1.1907450189       -4.6377635553
 C        -8.4404458544        1.4836555991       -5.9328169590
 C        -9.1727136794        0.3047038878       -6.4464417030
 O        -9.8109771233       -0.3462871557       -5.6580852494
 C        -9.1772750033       -0.1516974552       -7.9540895982
 C        -8.4739045153       -1.5370915167       -7.9358793716
 O        -7.2933969060       -1.6013284404       -8.2238593242
 C        -9.3663248394       -2.7055858901       -7.5387872175
 C        -8.7908440942       -4.1382793068       -7.8539089324
 C        -7.8013825981       -4.6379758923       -6.7993295898
 O        -6.9324218083       -3.9161897853       -6.3492418134
 C        -8.0053296471       -6.0976416152       -6.2113138210
 C        -9.2675285784       -5.9429702197       -5.2969164301
 O       -10.3355598676       -6.1018674304       -5.8222417269
 C        -9.1489751493       -5.5631121415       -3.8819445516
 C       -10.4888325387       -5.3076749453       -3.1446812414
 C       -11.1455402163       -3.9226361880       -3.5578393795
 O       -10.5000217787       -3.1218517603       -4.2277164284
 C       -12.4594948991       -3.5396329292       -2.8454641162
 C       -12.0706415316       -2.9262938985       -1.4352307862
 O       -11.6930130669       -3.5983802826       -0.5230262651
 C       -11.9917980667       -1.3719393508       -1.2988543621
 C       -11.9540182825       -0.9358551058        0.1634129706
 C       -12.2866244843        0.5795823245        0.2770348683
 O       -12.9131098363        1.1490306792       -0.5820226908
 C       -11.8595859470        1.2797654838        1.5742035338
 C       -10.3324732768        1.2360760678        1.6507804500
 O        -9.8256056474        0.1282446139        1.4938007194
 C        -9.4249553266        2.3717175354        1.9550316576
 C       -12.4333353424        2.7178137253        1.5304533948
 C       -12.3576455905        0.4771319566        2.8144259344
 C       -13.1286104849       -2.4010809137       -3.7275166825
 C       -13.4435244753       -4.6971295322       -2.5849409101
 C        -8.3487845020       -7.0678777767       -7.3260594828
 C        -6.8120976115       -6.4668644199       -5.4161104046
 C       -10.5809450694       -0.1237826788       -8.5031019891
 C        -8.2339518890        0.9279763704       -8.7575605409
 C        -5.1046223606       -1.4442630352       -3.5933430359
 C        -5.5778541507        1.0226018235       -2.6845121400
 C         1.2811498824        2.0128656499       -4.8199794795
 C         1.1408655933        1.6294982636       -7.3740503229
 C        -1.6565631565       -5.2852433848       -5.8852756101
 C        -1.3498105874       -5.6490620987       -8.4183534521
 C        -4.5675973862       -0.0767700453      -11.5003625408
 C        -5.9496779123       -2.1832839824      -11.8821521833
 C        -0.7332158299       -4.3376420566      -15.4987774351
 C         1.3824174846       -3.9289771158      -14.3279841585
 C         0.1997354159        2.1607442877      -18.7592202869
 C         0.6563579496        1.0980969800      -21.0557182542
 C         7.6433375551        2.5270411811      -19.8983233726
 C         7.0150558992        2.2301916661      -22.3003946431
 C         5.5740604131       -3.7576029025      -19.0480423761
 C         6.4665111989       -4.9720413402      -21.0819571254
 H         2.8441506836       -6.3429119414      -21.8733506939
 H         4.5442312285       -6.5941624450      -22.0898429637
 H         3.6341502852       -5.3641778512      -23.0993600254
 H         6.6926097333       -2.6471174336      -22.9326024150
 H         7.5175992079       -2.5240811196      -21.4374379447
 H         5.9954500358       -0.3400717344      -22.8557370329
 H         7.6697033756       -0.4240202074      -22.6411527912
 H         5.1419318180        2.4854953024      -18.5508512722
 H         4.7048242615        0.8164914891      -19.0592762423
 H         2.7558401100        2.6756805977      -20.2325702357
 H         2.6968630911        2.8229880546      -18.4152705729
 H        -1.6602656015       -0.5298099720      -17.9061980458
 H        -0.2920184559       -0.0229053840      -17.0239685539
 H        -0.5670519280       -3.0147783610      -17.9496256477
 H        -1.4610782846       -2.2609884595      -16.6304525962
 H        -0.1589826516       -3.0318395157      -12.2480282021
 H        -1.4780337869       -3.7626690624      -12.8345075895
 H        -2.1645551422       -0.9621780265      -12.7014221470
 H        -1.7636606524       -1.5879103623      -11.0483302834
 H        -5.2780102998       -3.8586967701      -10.2673209612
 H        -5.5778274771       -3.3999258785       -8.6679079603
 H        -2.7921416837       -3.5766088762       -9.7791488922
 H        -3.5857120378       -5.1474632935       -9.2522431010
 H         0.0720984935       -2.5361934803       -5.5085931882
 H        -1.5466530307       -2.2324600350       -5.9786863992
 H        -1.0713039063       -0.4935258044       -7.4883514036
 H         0.6597614638       -1.1126209869       -7.6878167854
 H        -1.4165650100        2.7459341791       -4.0968029596
 H        -1.0635556087        1.1037920250       -4.0534164117
 H        -3.5566700280        2.3858835416       -5.3278296700
 H        -3.6696493075        1.9956131446       -3.6534678256
 H        -7.4938344686        2.1336834836       -4.0745941520
 H        -8.4470341652        0.6977769880       -4.0130672613
 H        -7.6781983346        1.9561627026       -6.5875177591
 H        -9.1154280707        2.3065781069       -5.7464571454
 H       -10.3041069001       -2.5097422449       -7.9227885729
 H        -9.4847421627       -2.7380966193       -6.4346948325
 H        -8.3467346079       -4.2522381551       -8.8037555055
 H        -9.7312516513       -4.6987184189       -7.7383672857
 H        -8.6128633244       -4.6102723027       -3.8738452708
 H        -8.4730421784       -6.1674736939       -3.2242142893
 H       -10.4729828652       -5.2340945986       -2.0435763478
 H       -11.2177717381       -6.0675453597       -3.4568553608
 H       -12.8311816592       -0.8758485827       -1.8243069307
 H       -10.9747243108       -1.2205759548       -1.7041888774
 H       -11.0278441012       -1.1831169993        0.6518511256
 H       -12.7633151945       -1.4212316097        0.6765746695
 H        -8.4386566449        2.0751460698        1.6561369469
 H        -9.5921582165        2.5670145894        3.0236611009
 H        -9.6941747380        3.1502743467        1.1987411116
 H       -12.2338752688        3.3552704514        2.3546392303
 H       -13.4747391777        2.7819589476        1.3527036549
 H       -11.9910221035        3.0656441709        0.6431939215
 H       -13.4385748602        0.5786033617        2.6783108734
 H       -12.0793027336        0.9624934607        3.7338924039
 H       -11.9241796491       -0.5304465743        2.8165226912
 H       -13.2244964505       -2.8664148201       -4.6808008172
 H       -12.4294270160       -1.5815334081       -3.9352348991
 H       -14.0144743247       -2.0069397564       -3.2464668956
 H       -14.4825920266       -4.3134803181       -2.4224369744
 H       -13.0446141691       -5.3462942930       -1.8412035329
 H       -13.6797697246       -5.2851746685       -3.4321903803
 H        -9.2912052348       -6.9441406774       -7.6639835459
 H        -8.3550984068       -8.0620808871       -6.8817177859
 H        -7.6651804939       -6.9731202740       -8.1728603884
 H        -5.8439642966       -6.2608549602       -5.8667785952
 H        -6.8693744009       -7.5381710773       -5.1312160356
 H        -6.8668261099       -5.8423783851       -4.5158827195
 H       -10.7258350221       -1.1680000119       -8.8613301502
 H       -10.6408037375        0.5167639388       -9.3628569095
 H       -11.4074191767       -0.0044812599       -7.7370606111
 H        -7.3175031374        1.2256550270       -8.3486556815
 H        -8.7928342517        1.9089013998       -8.9830039573
 H        -7.9665782201        0.5460076657       -9.8012589481
 H        -5.8637899976       -1.9841788123       -2.9379457535
 H        -4.1775121086       -1.7467046583       -2.9674654456
 H        -4.9968308128       -2.0454370921       -4.4549623015
 H        -6.5661537954        0.8179313335       -2.2697893628
 H        -5.4397068949        2.0136064479       -2.8701823624
 H        -4.9032942887        0.7297593459       -1.8723112441
 H         2.2048508297        1.2798106785       -4.6844141072
 H         0.8592972671        2.0821725875       -3.7524354887
 H         1.6275379396        2.9432635977       -5.2276967647
 H         0.6615596296        0.9948597972       -8.0759343445
 H         2.1621811708        1.4226569709       -7.2915592545
 H         1.0721683016        2.7025109502       -7.7404634169
 H        -0.6689256327       -5.5057965361       -5.5752383950
 H        -2.4754406954       -6.0106336812       -5.8044942216
 H        -2.0763481953       -4.4633019178       -5.2361911194
 H        -1.3337099153       -5.1042245869       -9.4511903494
 H        -2.0950556026       -6.4832911234       -8.6288605523
 H        -0.3373160049       -6.0605405765       -8.2008182390
 H        -5.2645918743        0.4202260954      -12.1555754669
 H        -3.6251162697        0.1990793813      -11.8184135428
 H        -4.7935686861        0.4080564296      -10.4910588248
 H        -6.2905648337       -1.5677561872      -12.6655240886
 H        -6.7198806069       -2.2473988431      -11.0333031637
 H        -5.8282373537       -3.1626301019      -12.3340408991
 H        -0.4627877606       -4.8933985667      -16.4439112315
 H        -1.6941219243       -3.8147299272      -15.7857833542
 H        -0.8329505812       -5.1054164539      -14.7138657401
 H         1.8280536979       -4.7418779932      -14.9308975894
 H         1.3167318440       -4.3448079960      -13.2729829152
 H         2.1756229611       -3.1297396799      -14.2224831823
 H        -0.8035665026        2.3551252921      -19.1131515659
 H         0.6762832997        3.0776813761      -19.0312541497
 H         0.2419316926        2.1742868743      -17.6462843528
 H         1.4018722909        1.7564887996      -21.3138677776
 H        -0.3492209515        1.4714243011      -21.3514386778
 H         0.8833088522        0.0534491035      -21.4994795136
 H         8.5184672199        2.8466549665      -20.3346574812
 H         7.9941711040        1.8802032012      -19.0056816135
 H         7.2440889253        3.4903676510      -19.4046082462
 H         6.8046391071        3.3372331159      -22.3182074520
 H         6.5867501503        1.7670319731      -23.1740888758
 H         8.1066820935        2.0373702470      -22.4877621312
 H         6.2804054785       -2.9706874380      -18.9903458662
 H         5.9442768239       -4.6154719202      -18.4866992202
 H         4.6649013810       -3.4165282672      -18.4694666761
 H         6.3996124161       -5.1946798565      -22.1786586422
 H         6.3626678632       -5.9452472596      -20.5533617694
 H         7.4770979063       -4.5198998735      -20.9472173803
 Na        2.4574695131       -2.4782165745      -19.1339771529
 Na       -5.3968679901       -2.0242066584       -6.7503607922
