232

 C         4.0105025753       -5.7627002634      -22.0539609047
 C         4.0640680658       -4.6347888655      -21.0330855977
 O         3.0929269196       -4.1130555857      -20.5254283462
 C         5.4469221465       -4.1363916536      -20.5831740878
 C         5.4837781456       -2.6654062384      -21.0999577062
 O         4.4236693009       -2.0302957576      -21.0725711681
 C         6.8865479376       -2.0203212675      -21.4511615150
 C         6.7190480368       -0.5637573405      -21.9894527058
 C         6.5583178503        0.3369232117      -20.7641938085
 O         6.5089255692       -0.0825825525      -19.6321884055
 C         6.5503892690        1.8537442777      -20.9861558140
 C         5.1166775461        2.3882601185      -20.6443420597
 O         4.4696200990        3.0395907078      -21.4518294605
 C         4.5094654837        2.2944453838      -19.1862905554
 C         3.0055569273        2.2336410627      -19.3143452454
 C         2.3310446841        0.7979138405      -19.2114844940
 O         2.8405178801       -0.2297243102      -18.8108205683
 C         0.7514989000        0.7911715001      -19.6645742731
 C         0.2606699353       -0.5856449460      -19.0581406304
 O         0.3871153328       -1.5786428197      -19.7458487675
 C        -0.5693697996       -0.7090504790      -17.7898085165
 C        -0.8030323897       -2.1781468187      -17.4859488147
 C         0.3038612745       -2.6616284943      -16.5959280134
 O         1.4627818892       -2.3979167726      -16.9853033492
 C         0.1515638728       -3.4007867553      -15.1656362986
 C        -0.6120249480       -2.3263005661      -14.2064494697
 O        -0.8891081267       -1.2810428046      -14.6557762454
 C        -1.0592839320       -2.7288523483      -12.8040615813
 C        -2.1249750021       -1.7828801523      -12.1675168585
 C        -3.5575995979       -2.4494117995      -12.0094779233
 O        -3.7056015537       -3.5711474362      -12.4177601607
 C        -4.6990821190       -1.7425275767      -11.3281925725
 C        -4.6057706750       -2.2043533180       -9.8133454651
 O        -4.0897048135       -1.4866498330       -8.9846295080
 C        -5.1750337478       -3.5065331053       -9.2863860987
 C        -3.9054006281       -4.3514030288       -8.8574837132
 C        -3.0972139872       -4.0837628610       -7.5516182618
 O        -3.4370417492       -3.3667012917       -6.6673478430
 C        -1.7038424080       -4.6570031865       -7.3729919666
 C        -0.6558792340       -3.4299036651       -7.6178431261
 O        -0.0566862648       -3.3682901277       -8.6435065728
 C        -0.5021754595       -2.4076761720       -6.4961125085
 C         0.1798854035       -1.0802180344       -6.8884420798
 C         0.4707988400       -0.1286158963       -5.6902017542
 O         0.5809698517       -0.5166952999       -4.5435783624
 C         0.5322619080        1.4639758560       -5.9662826597
 C        -0.9992929441        1.7664721478       -5.9658884738
 O        -1.6750630718        1.8689397143       -6.9778625132
 C        -1.7413364323        1.6793308005       -4.5082350037
 C        -3.2683669877        1.9459207928       -4.5163367108
 C        -4.0720413637        0.5543149109       -4.8511516933
 O        -3.6657579294       -0.0512337984       -5.7940035707
 C        -5.2841928739        0.0206285843       -3.9677969024
 C        -6.5612576029        0.1719426480       -4.8383643422
 O        -6.8580313397       -0.6417076251       -5.6996717101
 C        -7.5587040634        1.2352801282       -4.5832897003
 C        -8.4588399200        1.5259901960       -5.8389787557
 C        -9.1864376655        0.2958343561       -6.4276353137
 O        -9.9137251045       -0.4233758938       -5.7914536774
 C        -9.0095503884        0.0208293142       -8.0326341184
 C        -8.4285326689       -1.4523740535       -8.1230353429
 O        -7.2944849178       -1.7397146810       -8.5020053189
 C        -9.3083048328       -2.7025454365       -7.6831547041
 C        -8.6704430654       -4.1188365835       -7.6771293600
 C        -7.7655826248       -4.4951119490       -6.5989697294
 O        -6.8909129762       -3.7652752783       -6.1086815007
 C        -7.9990463248       -5.9454271063       -6.0590806775
 C        -9.3242541081       -5.9435857016       -5.2021852281
 O       -10.4573930117       -6.0554409300       -5.6871312106
 C        -9.1991376863       -5.6291126699       -3.7172913199
 C       -10.5904071168       -5.3370895412       -3.0573832980
 C       -11.1527737388       -3.8972875613       -3.4656148925
 O       -10.4902561998       -3.1017691214       -4.0956248011
 C       -12.4870334529       -3.4843659925       -2.8513687098
 C       -12.0572687162       -2.8703675870       -1.5170055636
 O       -11.9104503410       -3.6258381372       -0.5861709489
 C       -11.8906324104       -1.3885567874       -1.3479913823
 C       -11.9383605144       -1.0286167123        0.0987371693
 C       -12.2633537591        0.4546525392        0.2007659836
 O       -12.8577551512        1.0533794536       -0.6712097763
 C       -11.7526974319        1.1793041195        1.5646899769
 C       -10.2463627752        1.2386124402        1.4846562516
 O        -9.4775782768        0.3434009885        1.1818976339
 C        -9.6742356976        2.6017562454        2.0333250353
 C       -12.4881577209        2.4640151829        1.6323812032
 C       -12.1579760089        0.3568926641        2.7987143660
 C       -13.2256917502       -2.4628356027       -3.8129566810
 C       -13.4482071144       -4.6022493072       -2.5539072766
 C        -8.0844213912       -6.9058915857       -7.2930320629
 C        -6.6729593503       -6.4110400887       -5.3817861749
 C       -10.5080846745        0.0590289663       -8.5591670292
 C        -8.1275880323        0.8864387185       -8.9951286253
 C        -5.0163670876       -1.4155621880       -3.4999192357
 C        -5.3295028819        0.7746562607       -2.5697605429
 C         1.3996508269        2.1495991208       -4.7969402460
 C         1.2036008020        1.9591218353       -7.3295244439
 C        -1.5496442926       -5.1830015730       -5.8916027136
 C        -1.2919497802       -5.8005653157       -8.3529159703
 C        -4.6515728684       -0.2596157407      -11.3257068583
 C        -6.0878056164       -2.0995645768      -11.8478099939
 C        -0.8458373557       -4.5918504295      -15.2476491885
 C         1.5332632869       -3.8933289974      -14.7439288876
 C        -0.0588909700        1.8790539613      -18.8546869579
 C         0.4473174684        0.8324440688      -21.1698425440
 C         7.5814607284        2.3607740651      -19.9617699218
 C         7.0376299457        2.3477522727      -22.4718708931
 C         5.4817505225       -4.1915128895      -19.0220097929
 C         6.6077208072       -4.9861759877      -21.1189539408
 H         3.1868669667       -6.5318569756      -21.9382626674
 H         4.9978581117       -6.2344605685      -22.2131962330
 H         3.8266691557       -5.1825781376      -22.9555272335
 H         7.5518980445       -2.6936977665      -21.9860339922
 H         7.2089133147       -1.9215256387      -20.3582550949
 H         5.8409935634       -0.4136091144      -22.7016210204
 H         7.6665961732       -0.2701938331      -22.5634517745
 H         4.6539780573        3.1889268170      -18.6452179286
 H         4.8974242513        1.4454955750      -18.6127676207
 H         2.5325248791        2.7673679747      -20.1681341861
 H         2.5619833447        2.6807853079      -18.4012075011
 H        -1.5796539097       -0.3028828827      -17.8603134817
 H        -0.1387828030       -0.1913091580      -16.8853339239
 H        -0.8630625049       -2.7560913077      -18.4305376506
 H        -1.8323469983       -2.2249068250      -17.0650657120
 H        -0.1635629861       -2.9045002607      -12.1245286020
 H        -1.4804179303       -3.8206047518      -12.7771176367
 H        -2.2527519016       -0.8786220222      -12.7612826567
 H        -1.8388120195       -1.4424215819      -11.1471535170
 H        -5.8930824741       -3.9477029711      -10.0267695338
 H        -5.7530846149       -3.3430987302       -8.3275324009
 H        -3.2692785237       -4.1390642959       -9.7124315030
 H        -4.1406647246       -5.4326244860       -8.7596431982
 H        -0.0043893051       -2.9474209755       -5.7616046033
 H        -1.4926781281       -2.1739623649       -5.9950747787
 H        -0.5172144900       -0.5154025856       -7.4762976762
 H         1.0404961734       -1.3106986646       -7.4766495564
 H        -1.1612300232        2.3884220066       -3.8916131122
 H        -1.4099622231        0.6934047347       -4.0054401653
 H        -3.5548261593        2.5737512978       -5.3726971911
 H        -3.7204779469        2.4314373191       -3.6329329049
 H        -7.0690003061        2.1135690774       -4.2897512963
 H        -8.1822844267        1.0517162531       -3.6563922130
 H        -7.7480592758        1.9999301866       -6.5210146969
 H        -9.2343557870        2.3077887851       -5.5530422176
 H       -10.1564510903       -2.6880935407       -8.4715711778
 H        -9.7299669940       -2.4175195621       -6.7213996560
 H        -8.1167539099       -3.9617539590       -8.6605926549
 H        -9.4939021832       -4.8055840609       -7.7008516159
 H        -8.5230481851       -4.7765267436       -3.4725998892
 H        -8.8276897762       -6.5172190412       -3.1980004348
 H       -10.4907612206       -5.2005573941       -1.9678638843
 H       -11.3295236345       -6.1098390182       -3.3028200733
 H       -12.7271881766       -0.9602010698       -1.8455136274
 H       -10.9145036767       -1.0802865822       -1.6309360229
 H       -10.9357898772       -1.2180977363        0.5423750991
 H       -12.7332489222       -1.5762538277        0.6792296222
 H        -8.5957155708        2.5978162760        1.8332064440
 H        -9.8893291096        2.4411108725        3.0681530720
 H       -10.0906868793        3.4399708576        1.5898364218
 H       -12.2673113805        2.8804715635        2.6113546908
 H       -13.5624378249        2.3333850857        1.5017746957
 H       -12.2797463532        3.2165793482        0.8288244985
 H       -13.2401110621        0.1773811093        2.9378757214
 H       -11.6717127240        0.9315595376        3.5990129536
 H       -11.5441660364       -0.5329322409        2.7364680475
 H       -13.7400495670       -3.0499577863       -4.6149224156
 H       -12.5103189493       -1.6861624459       -4.2128352161
 H       -13.9091815284       -1.8889605802       -3.1524187165
 H       -14.4327934816       -4.2135872806       -2.2727074607
 H       -12.9669215861       -5.3472708586       -1.8395421188
 H       -13.8523997523       -5.1677958740       -3.4723891986
 H        -9.1183305320       -6.9037444511       -7.8195762305
 H        -7.9830828662       -7.9057521005       -6.8830195571
 H        -7.3404662883       -6.7315604377       -8.0725328729
 H        -5.8013219227       -6.3720025646       -6.0425379896
 H        -6.8231105671       -7.4058225680       -5.0608659965
 H        -6.3316946512       -5.7613662169       -4.5624589441
 H       -10.7491113131       -0.3331519927       -9.5436998792
 H       -10.8541158687        1.0938010204       -8.5265353463
 H       -10.9482764651       -0.4631661818       -7.7931530325
 H        -7.0253009058        0.5906483590       -8.8773721963
 H        -8.1758204423        1.9325177463       -8.8833110282
 H        -8.3859698057        0.7666930337      -10.0013041542
 H        -5.8142411282       -1.9868823216       -3.0690149302
 H        -4.2651388116       -1.4548467712       -2.7980475761
 H        -4.5618114018       -2.0989482027       -4.2870732499
 H        -6.0439985755        0.3036342911       -1.8966180500
 H        -5.5834578358        1.8673496589       -2.8144903447
 H        -4.3027002017        0.7756808640       -2.1415844844
 H         2.4318924300        2.0588281591       -4.8781546398
 H         1.1733675582        1.5759135406       -3.9396573269
 H         1.0388351166        3.2061757065       -4.6966631531
 H         0.7597125593        1.4804137634       -8.2469158602
 H         2.3472976797        1.8023116444       -7.3809597533
 H         0.9712649594        2.9827162224       -7.3060744075
 H        -0.4948660482       -5.4372230701       -5.8083191661
 H        -2.1685474613       -6.0684735784       -5.7718452458
 H        -1.7116273048       -4.3734174685       -5.1906090880
 H        -1.3374500986       -5.4682225403       -9.3343852879
 H        -1.9637121175       -6.5821325552       -8.3603038863
 H        -0.2868101163       -6.1539937974       -8.1346235706
 H        -5.0851314697        0.1945718650      -12.2601234297
 H        -3.5815130933        0.1629897125      -11.2434128117
 H        -5.3127014563        0.1088406628      -10.5876435876
 H        -6.1393537826       -1.9524347316      -12.9221054489
 H        -6.7322294546       -1.5209690309      -11.3264540347
 H        -6.3426677850       -3.1244945355      -11.7037786793
 H        -0.6449295921       -5.1204621592      -16.1703363795
 H        -1.8259692544       -4.2419675981      -15.2784380978
 H        -0.6420348856       -5.2672861091      -14.4422753670
 H         1.7557315963       -4.8817590213      -15.0947190266
 H         1.5250169075       -4.0533416974      -13.7079148890
 H         2.3108466518       -3.1943861123      -14.9046054555
 H        -1.1607481207        1.7554031330      -18.7548265368
 H        -0.0570101509        2.8904184926      -19.3349431900
 H         0.4169269213        2.0084947251      -17.8688156384
 H         0.9682852308        1.7590800248      -21.7033764302
 H        -0.6128060662        0.9538414295      -21.2498585937
 H         0.7692883057       -0.0682331890      -21.5342120105
 H         8.6245966894        1.8608531438      -20.0663362663
 H         7.3277314838        2.1401090792      -18.9680191137
 H         7.7782846541        3.4176015038      -20.0013360352
 H         7.3263197896        3.3676082871      -22.4593224261
 H         6.2549277235        2.2425718477      -23.1776206529
 H         7.7670384465        1.7414680335      -22.9425326543
 H         6.3906702478       -3.7079771596      -18.5271930674
 H         5.3697682154       -5.2836928384      -18.8572677043
 H         4.6764044922       -3.7208048993      -18.4825747895
 H         6.8610742703       -4.9529166358      -22.1331859196
 H         6.4679387056       -5.9665275265      -20.7649416416
 H         7.4676887140       -4.5863490232      -20.6201122322
 Na        2.4100468905       -2.3775675885      -19.3029953116
 Na       -5.3396258760       -2.0781332257       -6.5134583945
