232

 C         4.0368643259       -5.7095444161      -22.1126429166
 C         4.1434023221       -4.6441839797      -21.0283387700
 O         3.0961729282       -4.1763866186      -20.6404434649
 C         5.5041724850       -4.2192043778      -20.4916503937
 C         5.4643367790       -2.6292330196      -20.9519173499
 O         4.4226062114       -2.0085296037      -21.2004186264
 C         6.8027031266       -1.9654508917      -21.2174376850
 C         6.7147109421       -0.5885077315      -21.9110014777
 C         6.4653567439        0.4297053467      -20.8046795072
 O         6.4486424398        0.0225034884      -19.6327393000
 C         6.4550968513        1.9443718000      -20.9596251082
 C         5.1276613336        2.5990164551      -20.6754204217
 O         4.5500257548        3.2864286087      -21.5188447297
 C         4.4587945487        2.3328818889      -19.2166741197
 C         2.9385909437        2.3007765860      -19.1885526686
 C         2.2084968804        0.8649181170      -19.1801947145
 O         2.8680956088        0.0064307348      -18.6248219861
 C         0.7041048240        0.7030876357      -19.6403921088
 C         0.1422811728       -0.7153549727      -19.1430283284
 O         0.4304126064       -1.7284910102      -19.8060916263
 C        -0.7294143835       -0.7430860763      -17.8707567088
 C        -0.9927935913       -2.2011430111      -17.4018674084
 C         0.1995474489       -2.7119125359      -16.6326560287
 O         1.3004063162       -2.5385944784      -17.1293724787
 C         0.0160480836       -3.4775411194      -15.2073120592
 C        -0.7639828777       -2.3228927490      -14.2860037193
 O        -1.0522814518       -1.2440245375      -14.8076838865
 C        -1.0589401788       -2.6382707741      -12.8065731006
 C        -2.2297059802       -1.8426757539      -12.2806352678
 C        -3.5667745098       -2.5695745686      -12.0732108671
 O        -3.7583949763       -3.7094870538      -12.4788878851
 C        -4.7536692336       -1.7688033694      -11.2352283366
 C        -4.5624263906       -2.2180408630       -9.7152085614
 O        -4.0339092634       -1.5134786644       -8.9090769428
 C        -5.0710706785       -3.6618519653       -9.2739172108
 C        -4.0004951947       -4.7082314948       -8.6995943806
 C        -3.0572176794       -4.1545853588       -7.5416643690
 O        -3.5658672889       -3.3960680081       -6.7062427279
 C        -1.5804782770       -4.7370659819       -7.3598740779
 C        -0.5814298635       -3.4723462721       -7.6663125005
 O        -0.0490301991       -3.3419805310       -8.7426022410
 C        -0.3915031120       -2.3659166809       -6.4818974542
 C         0.3668178949       -1.0644539693       -6.9277388377
 C         0.6042624849       -0.1430596947       -5.7029096684
 O         0.7304902125       -0.6347704667       -4.5848153086
 C         0.4517558019        1.4312022278       -5.8152085091
 C        -1.0013094912        1.7357072210       -5.8790385764
 O        -1.6021105067        1.8474580375       -6.9544216854
 C        -1.7226071957        1.6570025980       -4.5528506101
 C        -3.1937905725        1.9588810530       -4.6341631559
 C        -3.9859703152        0.6117316299       -4.7958522733
 O        -3.7164788697       -0.1103622228       -5.7561603155
 C        -5.1472211465        0.0708755603       -3.8683350538
 C        -6.5477845325        0.1807050388       -4.7733230386
 O        -6.7479842508       -0.6226734760       -5.6907196545
 C        -7.6133851596        1.3081712907       -4.6451026617
 C        -8.4487951327        1.6157411937       -5.8832573627
 C        -9.0652592242        0.3038712005       -6.5112442203
 O        -9.8292067150       -0.3232633672       -5.8324802723
 C        -8.9297741557       -0.0788432310       -7.9977954752
 C        -8.4424755373       -1.5011605268       -8.0900257506
 O        -7.3608698149       -1.6798389054       -8.6077205058
 C        -9.3691444705       -2.6596165233       -7.6884587593
 C        -8.6428421266       -3.9938815220       -7.7404176825
 C        -7.7527585764       -4.3817795575       -6.5261203159
 O        -6.8701951295       -3.6939076479       -5.9976258128
 C        -7.9416258460       -5.8895705083       -6.0266675729
 C        -9.3394867003       -5.9194120175       -5.1337852037
 O       -10.3579132497       -6.0732047103       -5.7302319339
 C        -9.1783853586       -5.6971391700       -3.6705180195
 C       -10.6101840767       -5.3506332155       -3.0379244656
 C       -11.1690180092       -3.9636474837       -3.5484423244
 O       -10.3915907129       -3.1586041569       -4.0973128386
 C       -12.5637999357       -3.5851484553       -2.9558905136
 C       -12.1728868941       -2.9250697003       -1.5089449272
 O       -11.9537450611       -3.6972172183       -0.6304114184
 C       -11.8351445350       -1.4461171033       -1.3914507866
 C       -11.8680324693       -1.0455301750        0.1013784947
 C       -12.1826435251        0.4588174775        0.2776007173
 O       -12.7878189769        1.0887494372       -0.5256470408
 C       -11.7382732139        1.1972263692        1.6791920759
 C       -10.2042923503        1.4310980876        1.4982627906
 O        -9.4796297141        0.5605972353        0.9942335845
 C        -9.6057485362        2.7391484632        2.1303475828
 C       -12.5766504373        2.5052238437        1.6701781097
 C       -12.0460778486        0.1528644000        2.7344469921
 C       -13.2511112123       -2.4914725177       -3.9391061444
 C       -13.4895556551       -4.7855179039       -2.6106286429
 C        -8.1213382992       -6.8445129887       -7.1893772970
 C        -6.7384736743       -6.3732560280       -5.1779486846
 C       -10.4050912640        0.0712700832       -8.6333310214
 C        -8.1110617442        0.8721797395       -8.8653453402
 C        -4.9440972794       -1.4886952932       -3.5569249913
 C        -5.3154604736        0.8451127210       -2.4796470604
 C         1.2293667751        2.2206825025       -4.7564900670
 C         1.0091374279        1.9444715782       -7.2466413494
 C        -1.4661398999       -5.2032938369       -5.8515994499
 C        -1.2865118229       -5.8798323231       -8.3522176926
 C        -4.5839192171       -0.1588814171      -11.2322785091
 C        -6.0298412928       -2.2012552251      -11.9121172736
 C        -0.7984174969       -4.7120005293      -15.2303334108
 C         1.4330573745       -3.8344198666      -14.8011128812
 C        -0.0438248446        1.8867741061      -18.9829686413
 C         0.4517955643        0.8203290233      -21.1664580364
 C         7.5840948648        2.4638077929      -19.9735857892
 C         6.8634391661        2.3621205001      -22.3367952070
 C         5.4481458417       -4.3993819003      -18.9644363165
 C         6.7095930937       -4.9700519653      -21.0873532581
 H         3.1863413220       -6.2690999696      -21.8659608579
 H         4.8966663529       -6.3757947666      -22.1600387206
 H         3.9066951430       -5.2709477416      -23.1160339053
 H         7.1728450048       -2.6865607296      -22.0401479264
 H         7.4499968542       -1.9724453868      -20.3266738151
 H         5.9730311722       -0.5294696156      -22.8160707874
 H         7.7061813273       -0.4976368918      -22.3092079519
 H         4.6235234751        3.1715968028      -18.5412029393
 H         4.9153811404        1.4338444263      -18.7642809230
 H         2.5035771175        2.9359633731      -19.9968994678
 H         2.5568293324        2.7555505824      -18.2889676915
 H        -1.6110668282       -0.1193990794      -17.6818108312
 H         0.0291595530       -0.3906150054      -17.1220319177
 H        -1.2315638633       -2.8145337722      -18.2239953612
 H        -1.9312892490       -2.1876692676      -16.7892493038
 H        -0.2166073975       -2.5827461971      -12.1337462170
 H        -1.2650711164       -3.7752422341      -12.7634254022
 H        -2.4223707596       -0.9714927521      -12.8909623745
 H        -2.0141741431       -1.3952655909      -11.2847103320
 H        -5.6982136824       -4.0511113131      -10.0973447189
 H        -5.7461386654       -3.5279007988       -8.4118826648
 H        -3.4614545540       -4.9428720553       -9.6146566794
 H        -4.4932016768       -5.5498548430       -8.2454550369
 H         0.0365093098       -2.8836404523       -5.6136634676
 H        -1.4101565440       -2.0485265187       -6.1106685094
 H        -0.0829753560       -0.5786462240       -7.7969705415
 H         1.3495743725       -1.4409975901       -7.2321071557
 H        -1.1235831676        2.4132103957       -3.9327454845
 H        -1.4046724881        0.7405399109       -4.0507590924
 H        -3.4922604649        2.6777003029       -5.4257656351
 H        -3.6372885078        2.3970279490       -3.6349699028
 H        -7.0850295385        2.2020303387       -4.3340031830
 H        -8.3162592959        1.2013811305       -3.7472250137
 H        -7.7725079380        2.2829696010       -6.5060256140
 H        -9.2968052261        2.1580789893       -5.5238094483
 H       -10.3139687912       -2.5787568290       -8.2551105812
 H        -9.5500421400       -2.3929327096       -6.6406068710
 H        -8.1300348757       -3.8803055890       -8.7182029950
 H        -9.4518833920       -4.7332900226       -7.7024490498
 H        -8.4457191896       -4.8645797938       -3.4724395251
 H        -8.8061655390       -6.6785033339       -3.2031500870
 H       -10.6227652846       -5.2236867516       -1.9415075573
 H       -11.3270609572       -6.0651641752       -3.3808797250
 H       -12.6347509866       -0.8864149971       -1.9212681934
 H       -10.8207595198       -1.3532044907       -1.7500547311
 H       -10.9470809023       -1.3196088057        0.6526594364
 H       -12.7315560154       -1.5197272980        0.5716453241
 H        -8.5273811028        2.7540116489        1.9100178316
 H        -9.8970575577        2.8903265032        3.1746887294
 H       -10.0442056249        3.4092636433        1.3734226807
 H       -12.1533163999        3.1830285526        2.4985671676
 H       -13.6861408378        2.4816760579        1.6448487837
 H       -12.3532811416        3.0300647024        0.6707819618
 H       -13.1724990563        0.0305935954        2.7508364278
 H       -11.6383994007        0.5511460995        3.6216117652
 H       -11.5305723204       -0.8097160291        2.5697572043
 H       -13.6976775414       -2.9277662541       -4.7931712905
 H       -12.4047804535       -1.7638167073       -4.1190112607
 H       -13.9636993982       -1.8676074231       -3.3752611296
 H       -14.4318416864       -4.3399990197       -2.2910891567
 H       -13.0783230811       -5.4689103527       -1.9315310653
 H       -13.8659743932       -5.2815981900       -3.4337168543
 H        -9.0871840564       -6.7633897848       -7.6171229092
 H        -7.9791754813       -7.8821636989       -6.8177979283
 H        -7.3847541917       -6.6560072018       -8.0452486580
 H        -5.8273937179       -6.4598814552       -5.7453919810
 H        -6.9328529992       -7.2845219591       -4.6504942176
 H        -6.4219462103       -5.5341409664       -4.5305787965
 H       -10.4272599076        0.3774231591       -9.6926076197
 H       -10.8051535781        0.9045235081       -8.1191029288
 H       -11.0245322567       -0.7790035558       -8.3973865413
 H        -7.1080249613        0.5413245237       -8.8418567419
 H        -8.0890892970        1.8820747069       -8.4698594194
 H        -8.3968056259        1.1020448239       -9.8692777207
 H        -5.7770141853       -2.0943297476       -3.2991545355
 H        -4.1238855592       -1.7214075587       -2.9054284429
 H        -4.5879765851       -1.9424769019       -4.4020941731
 H        -5.5660531002        0.1033359790       -1.6766713526
 H        -6.1190201581        1.5712329014       -2.5886685360
 H        -4.3396643160        1.4278440082       -2.2167746671
 H         2.2464006089        2.3851899231       -5.0509143020
 H         1.3052742563        1.6413457481       -3.9050858661
 H         0.7614594778        3.0727731079       -4.6279552334
 H         0.2897043646        1.5431840081       -7.9232458648
 H         1.9783055215        1.5604514991       -7.6111873805
 H         0.8853452059        3.0646450092       -7.2597915634
 H        -0.4742657916       -5.4081938185       -5.5503424951
 H        -2.0303884397       -6.1725623976       -5.7994503962
 H        -1.8184826542       -4.3069583565       -5.2336100377
 H        -1.3248250027       -5.6413145854       -9.3936779339
 H        -1.9514004941       -6.6707122338       -8.2781076002
 H        -0.3301084041       -6.2382568298       -8.1204774710
 H        -4.3692101228        0.2930224451      -12.2071426164
 H        -3.7389367656        0.0319247674      -10.6669355911
 H        -5.4875103378        0.3982712333      -10.9016388252
 H        -5.8626145437       -2.0253083038      -12.9468643245
 H        -6.8578919991       -1.5262782323      -11.5239842311
 H        -6.3292408130       -3.2563115132      -11.8227880783
 H        -0.4642711719       -5.4674393909      -15.9525473659
 H        -1.8322579758       -4.4699378616      -15.3134236414
 H        -0.6924354107       -5.0970014314      -14.2669646477
 H         1.7199815736       -4.7047505048      -15.3275283364
 H         1.4887805957       -4.1916328544      -13.8004203214
 H         2.1136483076       -3.0284481489      -14.9135969951
 H        -1.1037273549        1.7651801761      -19.0997301061
 H         0.1094512307        2.7706212672      -19.5269358567
 H         0.1572158269        2.1113741489      -17.8967908937
 H         0.7444179346        1.8117049714      -21.3743277624
 H        -0.5831962040        0.7586196790      -21.3764646733
 H         1.0904713610        0.0933708119      -21.7173247876
 H         8.3152640394        1.8233657026      -19.7803944297
 H         7.1233118871        2.5525982734      -19.0029616108
 H         8.0045481828        3.4264237490      -20.2055260757
 H         7.1645550282        3.4119817644      -22.3820830637
 H         6.0816204062        2.2170647775      -22.9739350222
 H         7.6240026725        1.7300382211      -22.8040915496
 H         6.3633186777       -4.1762899101      -18.5199563383
 H         5.0765161244       -5.4343528579      -18.8153842553
 H         4.8058341109       -3.6944560911      -18.3902898569
 H         6.7980939669       -4.7085677513      -22.1104931339
 H         6.5744802444       -6.0063031255      -20.9360504973
 H         7.6772892957       -4.6850005664      -20.6490956454
 Na        2.4965599772       -2.3520968666      -19.4004965632
 Na       -5.2995388977       -1.9320372420       -6.6478810466
