232

 C         4.0291326414       -5.7960606129      -22.2892819214
 C         4.0847055380       -4.7973382228      -21.0492430917
 O         3.0124857364       -4.3132892536      -20.6768100752
 C         5.4677054727       -4.1862039126      -20.4863583858
 C         5.4900326406       -2.6227332190      -20.8907008568
 O         4.4684645793       -2.0294735710      -21.0917934345
 C         6.8920011869       -2.0148946333      -21.2379053867
 C         6.7215538110       -0.5848276067      -21.7508040254
 C         6.4845271738        0.4750169540      -20.6192447380
 O         6.2517587484        0.0522390647      -19.4990389362
 C         6.4639851829        2.0681966988      -20.9634939056
 C         5.0018250142        2.7488248941      -20.6538852629
 O         4.5019465616        3.4745569060      -21.4208197702
 C         4.3330120410        2.3576862168      -19.3539025276
 C         2.7931023178        2.4183399344      -19.1752899529
 C         2.2089831251        0.9524521529      -19.1079409088
 O         2.8508109828        0.0614430231      -18.5999171360
 C         0.6567978500        0.7634458042      -19.6003985833
 C         0.1437159472       -0.7404611887      -19.1872606137
 O         0.3539374856       -1.7576483841      -19.8434301184
 C        -0.7980908507       -0.7857576129      -18.0077568171
 C        -1.1984040330       -2.2333426384      -17.3752204934
 C         0.0853933041       -2.8645180987      -16.7590822036
 O         1.1946060206       -2.8226908989      -17.2024035893
 C        -0.0639872492       -3.4128559187      -15.2585531999
 C        -0.7621370015       -2.3605353118      -14.4090431213
 O        -1.2094469375       -1.2507867273      -14.8201277594
 C        -1.1021666217       -2.6591451617      -12.9291378752
 C        -2.2704126220       -1.8169219659      -12.3606006109
 C        -3.5375624800       -2.5864686054      -12.0221893935
 O        -3.8134745887       -3.7004574773      -12.4476087734
 C        -4.6331632412       -1.9046950888      -11.1781911358
 C        -4.4978062081       -2.3842062999       -9.6310646303
 O        -4.0780488974       -1.5681393749       -8.8309692988
 C        -4.8912205296       -3.8383902992       -9.2621788941
 C        -3.9873119934       -4.8506453715       -8.6160691694
 C        -3.0665591715       -4.2597291207       -7.5684660885
 O        -3.5392093462       -3.4631855904       -6.7372313535
 C        -1.5752910042       -4.6683607870       -7.3649292773
 C        -0.6007612039       -3.4016264669       -7.6516216970
 O        -0.0872863605       -3.3485711534       -8.7510995880
 C        -0.3037002958       -2.3757577839       -6.5899886242
 C         0.5024553744       -1.1378116895       -6.9682219496
 C         0.7244303269       -0.2516366055       -5.7245554979
 O         0.8846210919       -0.6682973852       -4.6177913270
 C         0.4613919595        1.3357604427       -5.8739146170
 C        -1.0834285829        1.5937702164       -5.8451558802
 O        -1.6677030826        1.8744997500       -6.8368749593
 C        -1.8068869970        1.6954737282       -4.4236310615
 C        -3.3047412178        1.7980052309       -4.6269312045
 C        -4.0518775073        0.5437972323       -4.8135007789
 O        -3.7885929057       -0.1676754528       -5.7605731513
 C        -5.2610377075        0.1546839591       -3.8760276333
 C        -6.4562445273        0.2810611124       -4.7165376468
 O        -6.6129075806       -0.5389446275       -5.5925193299
 C        -7.5253761669        1.4043596446       -4.5672465339
 C        -8.3177705374        1.6231218816       -5.8777224308
 C        -9.0683090398        0.4028938122       -6.4918962986
 O        -9.7475391539       -0.3042400694       -5.7592269473
 C        -8.9537320706        0.0548154378       -8.0618700171
 C        -8.4183627835       -1.4842999294       -8.2137632861
 O        -7.3232496389       -1.7584948009       -8.6421705462
 C        -9.2711361646       -2.5891800501       -7.5379333866
 C        -8.5702781178       -3.9747718142       -7.6676380179
 C        -7.7566499320       -4.4278153768       -6.4622320959
 O        -6.9568086053       -3.6446575896       -6.0270148738
 C        -7.8701700605       -5.8442302547       -5.9836339339
 C        -9.2886180205       -5.8261378437       -5.1137620833
 O       -10.2428882656       -6.0859772713       -5.7815987483
 C        -9.2609072446       -5.6898251669       -3.6275845779
 C       -10.6277817418       -5.4053586403       -3.0344157678
 C       -11.1173400092       -4.0419450390       -3.4521334486
 O       -10.4582409872       -3.2855861833       -4.1218192507
 C       -12.5455347216       -3.5845418987       -2.9641214047
 C       -12.1493555999       -3.0244713251       -1.5930999033
 O       -12.0386374101       -3.7983489752       -0.6536458749
 C       -11.8691607557       -1.4778623032       -1.4764234452
 C       -11.8052497011       -1.0379737192        0.0576340862
 C       -12.1491030281        0.4438152366        0.2715594548
 O       -12.7512097475        1.1179698452       -0.5595569989
 C       -11.6932735956        1.1653680518        1.6620079973
 C       -10.1676782838        1.5836963055        1.5407208528
 O        -9.4800951875        0.8431321540        0.8670296893
 C        -9.5693066776        2.8428448961        2.1600402412
 C       -12.5525115713        2.4611804428        1.8174672282
 C       -11.9486394198        0.0891256721        2.8509896869
 C       -13.1878211892       -2.6156645471       -3.9562222991
 C       -13.4939735685       -4.8050795505       -2.8243120415
 C        -8.1542629504       -6.8509569671       -7.1490073263
 C        -6.7959934979       -6.2234088878       -4.9357505448
 C       -10.4624541620        0.1003584989       -8.6594954961
 C        -7.9224304338        0.9676644737       -8.7653479268
 C        -4.9331713927       -1.3097777732       -3.6288173000
 C        -5.3421467729        0.8595862697       -2.5011860155
 C         1.1106676145        2.1656616186       -4.7124298145
 C         1.0383424071        1.8755783441       -7.3155751343
 C        -1.4063243756       -5.1386122729       -5.9419926392
 C        -1.2254172343       -5.8101246829       -8.2524805382
 C        -4.4563893980       -0.3526080978      -11.1902043769
 C        -6.0266364465       -2.2435903239      -11.9021390947
 C        -0.9112837067       -4.7915522220      -15.3297532449
 C         1.3770167773       -3.6477086559      -14.6805707522
 C        -0.1195116586        1.9078857110      -19.0090180492
 C         0.6358075079        0.7550699915      -21.1532344285
 C         7.5633056616        2.6725522689      -19.9455611153
 C         6.8148802096        2.4374682423      -22.4588631044
 C         5.4340785909       -4.4617295740      -18.8967082067
 C         6.7253360822       -4.8408573004      -21.0189939452
 H         3.0940462159       -6.2826548779      -22.2379386516
 H         4.7611705320       -6.5472575859      -22.2100248841
 H         4.1512280462       -5.3272573174      -23.2559146347
 H         7.2725389750       -2.6865372698      -22.0531294988
 H         7.5068698433       -2.0290517965      -20.3526038852
 H         5.8443608287       -0.5142149610      -22.3343450689
 H         7.5724237689       -0.4433905097      -22.3926746988
 H         4.7680411066        2.9567826934      -18.4937645958
 H         4.6863720114        1.3338254427      -19.1791321982
 H         2.3247980226        2.8160564552      -20.0709699317
 H         2.3441164951        3.0537424642      -18.3971950264
 H        -1.7608037393       -0.4502781486      -18.4576980656
 H        -0.6095789639       -0.0614793997      -17.2497339581
 H        -1.6777954934       -2.7826209561      -18.1877848141
 H        -1.9934124243       -2.1292446702      -16.6879497248
 H        -0.2963672575       -2.2361868515      -12.3247411850
 H        -1.0521801293       -3.6566886884      -12.6895282330
 H        -2.5500243460       -1.0069520594      -13.0812275215
 H        -1.9711334640       -1.2182146540      -11.5102780112
 H        -5.2238965578       -4.2649643115      -10.2002233568
 H        -5.7304463584       -3.8184548324       -8.6116008462
 H        -3.5314957134       -5.3633588354       -9.4557494373
 H        -4.6545333136       -5.4841651896       -8.0520250415
 H         0.0064617164       -2.9869903475       -5.6484918800
 H        -1.2637471779       -2.0008970825       -6.2998305323
 H         0.1162494306       -0.6388984974       -7.8913654860
 H         1.5341690260       -1.5144357059       -7.2253515630
 H        -1.3684995544        2.5234730881       -3.8617908086
 H        -1.4722021112        0.8918009248       -3.8466735144
 H        -3.5247277869        2.3713384957       -5.5869067544
 H        -3.8473321205        2.3650236484       -3.8840361346
 H        -7.2692180794        2.3416927693       -3.9390707343
 H        -8.2403474048        0.9669645835       -3.8967762677
 H        -7.5604267288        1.9997726423       -6.5752745152
 H        -9.1013313827        2.3353336948       -5.6525176890
 H       -10.1304452155       -2.5737304604       -8.1242440037
 H        -9.5275304468       -2.2902237694       -6.5033565966
 H        -7.9725277756       -3.7912434163       -8.5197999036
 H        -9.4222479588       -4.6638667316       -7.8391839877
 H        -8.5968616324       -4.8496720284       -3.3256086950
 H        -8.9610656803       -6.6829065942       -3.1575616200
 H       -10.5719255086       -5.4486880209       -1.9478622784
 H       -11.3891755152       -6.0521832818       -3.4712314000
 H       -12.6868748583       -0.9209281957       -1.9977729125
 H       -10.8337023008       -1.4047942702       -1.9059561195
 H       -10.8242867964       -1.1422090542        0.4976663427
 H       -12.5020914659       -1.6058975835        0.6356767526
 H        -8.4907526249        2.6798962868        2.1597492608
 H        -9.9745103984        3.0810917167        3.1763440241
 H        -9.7772325675        3.6206089202        1.3297161288
 H       -12.0504235889        3.0249727504        2.6638802642
 H       -13.6403201943        2.2572472738        2.0761934306
 H       -12.6724655133        3.0948179084        0.9258340863
 H       -13.0006383686       -0.0964011330        2.7559667994
 H       -11.7121848782        0.6442710173        3.7641500231
 H       -11.3902461032       -0.8517421828        2.8274287780
 H       -13.5088026804       -3.2599119962       -4.7824739254
 H       -12.5317757682       -1.8371362825       -4.1373757222
 H       -14.0910634008       -2.1733324112       -3.5677964754
 H       -14.4701371954       -4.5703998170       -2.5232429980
 H       -13.0786153981       -5.4251564588       -2.1146139858
 H       -13.6026143122       -5.3347189851       -3.7100213076
 H        -9.1201861835       -6.6478271973       -7.5157496040
 H        -8.0191489713       -7.9177312486       -6.9060125810
 H        -7.4799625526       -6.6190464837       -7.9927811763
 H        -5.8651882087       -6.4313239417       -5.4442095816
 H        -7.0572541737       -7.1152393725       -4.3034468334
 H        -6.4838875463       -5.3607818999       -4.4026977557
 H       -10.3761011700        0.4647545237       -9.6615064184
 H       -11.0923087440        0.8344896633       -8.1334268383
 H       -11.0042431999       -0.9118898459       -8.5839082331
 H        -7.0376633348        0.6127828607       -8.3591543778
 H        -7.9794197275        2.0504597948       -8.5804961847
 H        -7.8269479168        1.0378167503       -9.8690822600
 H        -5.7517217524       -1.9551657470       -3.3311686547
 H        -4.0250462461       -1.4588015334       -3.0072412350
 H        -4.6453484599       -1.8439515741       -4.5065982455
 H        -5.2279648338        0.0789707886       -1.7091707442
 H        -6.2722999038        1.4001312127       -2.3442282990
 H        -4.4910895261        1.5073679112       -2.4447716170
 H         2.1335092447        2.4305738232       -4.8416079018
 H         1.0575813853        1.5074461486       -3.8717519366
 H         0.5008534843        3.0673930016       -4.6005130913
 H         0.3232094824        1.5032566066       -8.0278914227
 H         1.8894287909        1.3794108811       -7.6189347206
 H         1.0616763036        2.9966916357       -7.3560664436
 H        -0.3331362113       -5.3685993177       -5.6817314957
 H        -1.8279233256       -6.1641931905       -5.9839438368
 H        -1.7742396342       -4.3886766579       -5.2300341157
 H        -1.2098904793       -5.6649828403       -9.3362655520
 H        -1.9965004054       -6.6534375074       -8.1402025136
 H        -0.2831548846       -6.2317559160       -7.9618339325
 H        -3.9412587034       -0.0433301371      -12.0311663982
 H        -3.9352656576        0.0398578461      -10.3578815449
 H        -5.4289134302        0.1335213389      -11.3389035702
 H        -5.9555539842       -1.8947962893      -12.9637111559
 H        -6.9315466066       -1.7778655235      -11.3605629806
 H        -6.1508941381       -3.3597813431      -11.9393250221
 H        -0.3225203362       -5.5170753833      -15.8501411622
 H        -1.9853181174       -4.7062588347      -15.6569487881
 H        -1.0456790826       -5.0963509306      -14.2534586955
 H         1.8424853231       -4.3414907310      -15.3527059152
 H         1.3287982674       -4.2764198257      -13.7765566875
 H         1.9921914799       -2.7684382440      -14.4993819247
 H        -1.1003213379        1.8942814944      -19.4557008265
 H         0.3025806974        2.8308202083      -19.3488596737
 H        -0.2787758918        1.9968909009      -17.9682511628
 H         0.8325212883        1.7273272832      -21.4371511991
 H        -0.3809655119        0.5588952385      -21.5318631568
 H         1.4371565383        0.0971259727      -21.5691295720
 H         8.3205176298        1.9675885767      -19.6267516329
 H         7.0411500637        2.7901081538      -18.9960771398
 H         7.9844631781        3.6145420878      -20.2027408566
 H         6.7808390270        3.5098889476      -22.6579719586
 H         6.0374734732        1.8937703197      -23.1293870052
 H         7.7540315845        2.0500967801      -22.8580892239
 H         6.4058496452       -4.2524100652      -18.5536395010
 H         5.0595378926       -5.4310753356      -18.6691472092
 H         4.9262821196       -3.6959328780      -18.3133669197
 H         6.6708316034       -4.7064393589      -22.1221952547
 H         6.6487029050       -5.9179763096      -20.7365791212
 H         7.6987690783       -4.4862739919      -20.7024531489
 Na        2.6427782638       -2.2719600969      -19.4575846505
 Na       -5.2154118430       -1.7834336008       -6.9046888133
