232

 C         4.1081331901       -5.6032954293      -22.2106238941
 C         3.9902113609       -4.6429778947      -21.0586162299
 O         2.8444918325       -4.2849436711      -20.7316329855
 C         5.4421200199       -4.0106168171      -20.3895461628
 C         5.4873918691       -2.4660816015      -20.6115873230
 O         4.5113304745       -1.8192725906      -20.3999547012
 C         6.8291530424       -1.8192355929      -21.0797347449
 C         6.6537361644       -0.3440688915      -21.5283712414
 C         6.2567412485        0.6662180910      -20.3903530028
 O         6.3670956714        0.3050218702      -19.2476581155
 C         6.1250142507        2.1905864637      -20.7100959155
 C         4.6356051477        2.8042288489      -20.3248686584
 O         4.1238331900        3.4639549660      -21.2017313730
 C         3.9964278275        2.5666408979      -19.0140579291
 C         2.5428450875        2.4181185250      -19.0224441453
 C         1.9825159630        0.9851942513      -19.2221848730
 O         2.5796675416        0.0820764606      -18.6909788893
 C         0.5508703724        0.6642437463      -19.8549395912
 C         0.0306741286       -0.6843667092      -19.3593269688
 O         0.5556104575       -1.6516371821      -19.8870134334
 C        -1.0193063472       -0.9549034879      -18.2904338762
 C        -1.2068669527       -2.5098648100      -18.0325011681
 C         0.0044026794       -2.9814493420      -17.2010426413
 O         1.0734660861       -3.3100948787      -17.6870165578
 C        -0.2588077576       -3.3151792854      -15.6966864698
 C        -1.1113550555       -2.2746184272      -14.8623696341
 O        -1.6631701994       -1.3172964160      -15.3276315334
 C        -1.2606795052       -2.6536368849      -13.3143029513
 C        -2.2107277711       -2.0241412787      -12.3036855806
 C        -3.4563119524       -2.8432752869      -12.0005371144
 O        -3.5956279300       -4.0038949198      -12.2951170945
 C        -4.6345637937       -2.0622473660      -11.1346339087
 C        -4.3774611376       -2.6617310637       -9.6935735355
 O        -3.6479731173       -1.9576227698       -8.9951122135
 C        -4.6889489957       -4.1949542955       -9.3293168300
 C        -3.3793533912       -4.9079821047       -8.9068937001
 C        -2.8760235696       -4.4454000349       -7.5870250505
 O        -3.4973288127       -3.6340780960       -6.9033688623
 C        -1.3797690928       -4.7568601905       -7.2475013833
 C        -0.6903347067       -3.3354574758       -7.6734443701
 O        -0.4179674388       -3.0881831820       -8.8199943216
 C        -0.4376356552       -2.3436727785       -6.6391803079
 C         0.3465713402       -1.1577020757       -7.0617554463
 C         0.8249842010       -0.4259227736       -5.8081359316
 O         1.1981910525       -0.8818974794       -4.7600190178
 C         0.5463787193        1.2640868421       -5.9361898142
 C        -1.0363395885        1.4187078633       -5.8855538898
 O        -1.6064741428        1.5222807061       -6.9395586478
 C        -1.7429536495        1.5863639942       -4.5684323932
 C        -3.3262565180        1.7033946228       -4.5998396342
 C        -4.1944771728        0.4395489484       -4.8027087566
 O        -4.0510272164       -0.2819711709       -5.7504511971
 C        -5.4240656492        0.1046292688       -3.7774577086
 C        -6.6068637356        0.3821762581       -4.6691341370
 O        -6.7825811597       -0.2747562124       -5.6548859314
 C        -7.5001087144        1.6473541370       -4.4379404591
 C        -8.1826999109        2.0413300467       -5.7611189304
 C        -8.6878674759        0.6860195569       -6.3535921632
 O        -9.5403819916        0.0587121243       -5.7543773908
 C        -8.5997951974        0.2056751828       -7.8937093760
 C        -8.1989190056       -1.2766345870       -7.9001089989
 O        -7.1609713961       -1.6218013131       -8.4321881901
 C        -9.1265500176       -2.3240535606       -7.1621137834
 C        -8.7236061414       -3.8753683336       -7.3081291804
 C        -7.5806843915       -4.2801454625       -6.3861825235
 O        -6.5476456985       -3.6842434342       -6.2623235606
 C        -7.6188445655       -5.6348484789       -5.6130179718
 C        -9.0803317063       -5.8518210915       -5.0607659691
 O       -10.0028976365       -5.9080479652       -5.8443576269
 C        -9.2672734219       -5.9957867234       -3.4495210593
 C       -10.6635861125       -5.5614941610       -2.9899617758
 C       -11.1182188716       -4.2035668094       -3.5027344974
 O       -10.4807798626       -3.5858186996       -4.3020949655
 C       -12.5551858020       -3.5569746951       -3.0565574079
 C       -12.3868839418       -3.0449490300       -1.5782562367
 O       -12.3418126523       -3.7995354940       -0.5943419123
 C       -12.4831456698       -1.5041835395       -1.3391624620
 C       -11.5750455916       -1.1359800490       -0.1259718091
 C       -11.8958985007        0.3982815378        0.1950593925
 O       -12.5306663158        1.0269997371       -0.6538715951
 C       -11.4409738831        1.0273323423        1.5860493741
 C       -10.0692019039        1.8939239845        1.3647018309
 O        -9.4403884222        1.6671348427        0.3789699800
 C        -9.8249631154        2.9872942736        2.3783399714
 C       -12.6656081654        1.8571688262        1.9708187981
 C       -11.1055130290       -0.0654219457        2.6807675424
 C       -12.9488598809       -2.4633773664       -4.0705245790
 C       -13.7233503844       -4.6167347508       -2.9329198910
 C        -7.5106917192       -6.7013120575       -6.7651487564
 C        -6.4837161365       -5.7238603599       -4.6431634245
 C       -10.0223847263        0.3137018520       -8.5345527231
 C        -7.5742181987        1.0593804843       -8.6163187426
 C        -5.2728850771       -1.3786044467       -3.5574419101
 C        -5.5009224503        0.8715963017       -2.3953447334
 C         1.1535047934        1.9190399778       -4.6586532302
 C         1.0854261628        1.8201005150       -7.2219835196
 C        -1.2421017304       -5.0937105421       -5.7711508635
 C        -0.8470061001       -5.9904075264       -8.0932931620
 C        -4.6545143057       -0.5296969458      -11.0764987212
 C        -5.9186955830       -2.5502173082      -11.7755876056
 C        -1.0309853321       -4.7259071908      -15.7193639012
 C         1.1618716660       -3.5066990098      -15.1143577522
 C        -0.4363550168        1.8791690007      -19.4771550273
 C         0.5502950850        0.5971514798      -21.4509473503
 C         7.1706055550        2.9599460974      -19.8584410132
 C         6.2706327391        2.4833329291      -22.1861696084
 C         5.3566645173       -4.2621494583      -18.8424513041
 C         6.8504722117       -4.6470635719      -20.9741230398
 H         3.2030985637       -5.4922149484      -22.8647967076
 H         4.1095152735       -6.6240168751      -21.8491944049
 H         4.9964014844       -5.4487922542      -22.7991068121
 H         7.2755533611       -2.4656380719      -21.8868025562
 H         7.3439963815       -1.8669344214      -20.0811925796
 H         6.0032603360       -0.3769191190      -22.3484723482
 H         7.6742953664        0.0238750565      -21.8834292061
 H         4.3168261732        3.3602657152      -18.2844163597
 H         4.4166992757        1.6563360535      -18.6072373091
 H         1.9723310657        3.1140866288      -19.5912617773
 H         2.1298098132        2.7579634944      -18.0721238989
 H        -1.9868051933       -0.5578267424      -18.7279841111
 H        -0.9173951367       -0.4296164283      -17.3537378744
 H        -1.1179501105       -2.8683209885      -19.0818114177
 H        -2.1614089181       -2.7687160767      -17.7176325670
 H        -0.2243216727       -2.4596697927      -12.8876748628
 H        -1.3984701175       -3.6835415887      -13.2362683434
 H        -2.6551495515       -1.0746043656      -12.6540602957
 H        -1.8442325405       -1.6440519500      -11.3748276902
 H        -5.1074801944       -4.8246427339      -10.1290220635
 H        -5.3385938466       -4.1631996067       -8.4521439261
 H        -2.6582912633       -4.7068206353       -9.7061140795
 H        -3.6176843073       -5.9456353185       -9.0537220319
 H         0.0624033104       -2.7562076423       -5.6679775545
 H        -1.4330775803       -2.0493650379       -6.3436195171
 H        -0.1057571279       -0.4213868026       -7.7219887843
 H         1.2039550249       -1.5101923731       -7.6524645350
 H        -1.3722802691        2.4744442635       -4.0052517494
 H        -1.4114872968        0.7663350908       -3.9124257796
 H        -3.6474947790        2.3768667885       -5.5185216493
 H        -3.6027175265        2.2306381070       -3.7043219905
 H        -7.0926952275        2.4984753530       -3.7412408418
 H        -8.2807307116        1.2566813942       -3.8014538323
 H        -7.4357673639        2.4872678033       -6.3854743452
 H        -9.0748488173        2.5982791946       -5.4653364485
 H       -10.0538584686       -2.2739726963       -7.6712896803
 H        -9.2695385628       -1.9784793053       -6.0877522131
 H        -8.3732697604       -3.9985162038       -8.3418885421
 H        -9.7506814182       -4.3097099983       -7.1283485301
 H        -8.5650995478       -5.2833419486       -2.9706815833
 H        -9.1976972087       -7.1189472243       -3.2631262382
 H       -10.7411123813       -5.5043283189       -1.9152653788
 H       -11.3703354384       -6.2871132026       -3.3957198062
 H       -13.5672079154       -1.3056799831       -1.1992725978
 H       -12.1288335509       -1.0068474009       -2.2832560268
 H       -10.5069160322       -1.3134758035       -0.3295883722
 H       -11.8234022751       -1.7277895313        0.7530161081
 H        -8.7571878658        3.1641873766        2.4951882151
 H       -10.1325873338        2.6620846474        3.3748917951
 H       -10.3897132261        3.9243489680        2.0563854078
 H       -12.5850864091        2.3162719594        2.9993856088
 H       -13.6034066338        1.1903672958        1.8402531227
 H       -12.6944153240        2.7505249628        1.3253207121
 H       -11.9238809068       -0.6904159109        2.9814087980
 H       -10.5760315799        0.3857844526        3.5635717513
 H       -10.5034726097       -0.7377460095        2.0905978099
 H       -13.4346312588       -3.0570635376       -4.9159127356
 H       -12.1863606355       -1.7803064695       -4.3234447021
 H       -13.8529626203       -2.0034495111       -3.6756728814
 H       -14.5767615148       -4.2698058822       -2.5287076584
 H       -13.3899394306       -5.2814060411       -2.1905861272
 H       -13.8410953063       -5.2203247906       -3.8030426298
 H        -8.3321470671       -6.5282053908       -7.4980890887
 H        -7.8197510978       -7.6164077603       -6.2206316249
 H        -6.5596603842       -7.0097154773       -7.1882925235
 H        -5.4804787115       -5.5538673052       -5.0289251158
 H        -6.5395396453       -6.7301262399       -4.1477237756
 H        -6.7023958542       -5.1172153750       -3.8077031488
 H       -10.2101020871       -0.5524801915       -9.0447500078
 H        -9.9413457883        1.0975899655       -9.2728086662
 H       -10.8115599874        0.6350172032       -7.8570119196
 H        -6.5241986069        0.8300430732       -8.4463253093
 H        -7.6819190209        2.1120861514       -8.4046910734
 H        -7.5975773294        1.0193463153       -9.7160568094
 H        -6.0145202278       -1.7486914595       -2.9663471522
 H        -4.3507136532       -1.5766237475       -3.1599854704
 H        -5.4714770074       -2.0682255158       -4.3782682440
 H        -4.4460126817        1.1116558013       -2.1138023981
 H        -5.8516005943        0.0679309942       -1.6638325275
 H        -6.0408266851        1.7676736131       -2.5345732429
 H         2.0981312424        1.5968681998       -4.6065008463
 H         0.6417900440        1.6479963247       -3.8185880394
 H         1.2317308108        2.9875111809       -4.7654232238
 H         0.6302071329        1.3812525116       -8.1616383312
 H         2.1039359170        1.4610370656       -7.2663061793
 H         0.9914628824        2.9004485950       -7.2410643352
 H        -0.1321482779       -5.1717992978       -5.4577259660
 H        -1.5544216136       -6.1176458109       -5.5551600730
 H        -1.7789365037       -4.3371229580       -5.2427392939
 H        -0.6691170579       -5.6859351641       -9.0462210706
 H        -1.4977481925       -6.8159337413       -8.1711310209
 H         0.0780310554       -6.4050152361       -7.8071156160
 H        -5.2947291460       -0.1945475656      -11.8534118672
 H        -3.6860635126        0.0227672071      -11.0955102890
 H        -5.0637883728       -0.2843048223      -10.1152418739
 H        -6.3139911170       -1.9495400074      -12.6277363674
 H        -6.7127763767       -2.4886447516      -11.0845303680
 H        -5.6804801557       -3.5924520709      -11.9375670575
 H        -0.5021712153       -5.3628726699      -16.3012555681
 H        -2.0022999242       -4.5271667652      -16.0696248604
 H        -1.1955249303       -5.0929456904      -14.7123334786
 H         1.6089882687       -4.1085330331      -15.8578451881
 H         1.3582972772       -3.9310264707      -14.1542257899
 H         1.7321214158       -2.6387748572      -15.3018899075
 H        -1.4773495826        1.6419629183      -19.6890082502
 H        -0.0891311643        2.7892134687      -19.9925134975
 H        -0.5674071438        2.1728320529      -18.5050517243
 H         0.8996635020        1.6194528919      -21.8699332944
 H        -0.3750702213        0.3201922474      -21.9028909330
 H         1.3032429371       -0.0526677714      -21.6869836251
 H         8.1400484895        2.9847894800      -20.4520408176
 H         7.3816755578        2.6113499817      -18.9114905238
 H         6.8517000248        3.9211278059      -19.7878628294
 H         6.4308206476        3.5126004566      -22.2822680538
 H         5.3412898214        2.2641904515      -22.7878842305
 H         7.1718077445        2.1172629249      -22.5647946781
 H         5.9275496831       -3.4117548908      -18.3416280365
 H         5.7502417576       -5.2262558140      -18.5033817746
 H         4.3522211774       -4.0404933485      -18.4654846050
 H         7.1940993456       -4.5196772417      -21.9720725420
 H         6.6898527586       -5.7062588579      -20.8309948278
 H         7.5585224942       -4.3948871117      -20.2653885834
 Na        2.4667835694       -2.6691322089      -19.2882782891
 Na       -5.2982610411       -2.0387201483       -6.7968590224
