232

 C         4.5158484300       -5.3857519087      -22.2958341601
 C         4.2091548110       -4.4176804897      -21.1176513204
 O         3.0527271517       -4.1261833304      -20.7620539559
 C         5.4844147613       -3.8309138292      -20.2733239254
 C         5.4758021097       -2.3431361426      -20.5149278675
 O         4.5392692441       -1.7779857527      -20.0109225152
 C         6.6415787050       -1.5118302715      -21.1627311199
 C         6.1507670023       -0.0566973748      -21.3925550939
 C         6.1805231130        0.8539508303      -20.1688171333
 O         6.2354697660        0.4145397340      -19.0490985958
 C         5.8697865016        2.3827695604      -20.4582530932
 C         4.3142025944        2.4542094989      -20.2516353561
 O         3.4741752075        2.6651737359      -21.1332628588
 C         3.7659945295        2.1874984113      -18.7737671306
 C         2.2698763494        2.1548767851      -18.6344773658
 C         1.7002103761        0.8241848216      -19.2078459770
 O         2.4626771990       -0.1121957553      -19.0955804260
 C         0.3869259613        0.7045750996      -20.1188573679
 C        -0.1547340673       -0.7853111100      -19.9201999266
 O         0.2567421435       -1.7210156567      -20.5864041476
 C        -1.0872225672       -1.0229378730      -18.6109353780
 C        -1.2529979373       -2.4905796771      -18.2491229808
 C        -0.1660295809       -2.9496992067      -17.2812292856
 O         1.0224956910       -3.0179216284      -17.5684267854
 C        -0.4540697570       -3.6131048422      -15.7976548723
 C        -1.2688470980       -2.5216279907      -15.0490018914
 O        -1.8858977381       -1.7233640278      -15.6708483288
 C        -1.1649065896       -2.4428749134      -13.4686491186
 C        -2.4388698905       -1.8822216224      -12.9320265862
 C        -3.4450667696       -2.8987450458      -12.3071431071
 O        -3.3210349240       -4.0827653746      -12.1657284541
 C        -4.5943727185       -2.2354201850      -11.3989462985
 C        -4.3737110945       -2.6635159259       -9.8852142907
 O        -4.1565716183       -1.8213295880       -9.0195335905
 C        -4.4502642985       -4.1366658786       -9.5240910021
 C        -3.1749098705       -4.7712445878       -9.0195729221
 C        -2.7577642445       -4.6295081045       -7.5417175505
 O        -3.6248028717       -4.3920145017       -6.7265173899
 C        -1.2523628401       -4.8151508874       -7.1283161246
 C        -0.6712695508       -3.4515371448       -7.5979434497
 O        -0.4195617039       -3.2842922957       -8.7476711651
 C        -0.2933061815       -2.4488525630       -6.5690158334
 C         0.1848698684       -1.1313915603       -7.0958791004
 C         0.7314400849       -0.3558640491       -5.8925734019
 O         1.2239749336       -0.9445855910       -4.9254525018
 C         0.4885867993        1.2397703104       -5.8160524280
 C        -1.0223375724        1.3903564099       -5.8230459266
 O        -1.6323859931        1.5549528546       -6.9087223819
 C        -1.6711153112        1.4538720738       -4.5072990117
 C        -3.1553032710        1.6643102617       -4.6702386407
 C        -3.9107236289        0.3264417965       -4.6814504375
 O        -3.5803641084       -0.5756471906       -5.4540115973
 C        -5.1544983655        0.0775448947       -3.7720156382
 C        -6.4204863791        0.3967491012       -4.7517626633
 O        -6.6917202662       -0.3747236239       -5.6359780023
 C        -7.1857280367        1.6999096751       -4.5293967248
 C        -8.1351637424        2.1451225604       -5.6593144568
 C        -8.9453749208        0.9432928164       -6.3800607819
 O        -9.9918828328        0.5053731941       -5.9761997122
 C        -8.4464305650        0.3238550630       -7.7224768439
 C        -7.9760635424       -1.1839016672       -7.4576730399
 O        -6.9594316369       -1.6602653825       -7.9372246211
 C        -8.9863755211       -2.2468686530       -6.7432041803
 C        -8.5651476248       -3.7449480516       -7.0955530460
 C        -7.5006240669       -4.1751096098       -6.0894254629
 O        -6.4468187277       -3.5769892341       -5.8677983942
 C        -7.6161954448       -5.5437712883       -5.4105568751
 C        -9.0955816082       -5.9229399758       -4.9018883596
 O        -9.9446299583       -6.3015000711       -5.7178998819
 C        -9.3892684711       -5.8372859355       -3.3840022486
 C       -10.9145363704       -5.5896753812       -3.1876284319
 C       -11.1809098355       -4.1540905371       -3.6605641375
 O       -10.3456807265       -3.4060559265       -4.0989013082
 C       -12.6252412985       -3.6200413979       -3.2981412881
 C       -12.3237204969       -3.0663038073       -1.8135430528
 O       -11.9776444875       -3.8358534804       -0.9311266949
 C       -12.3749813464       -1.5598102167       -1.4721283148
 C       -11.7888966319       -1.1674631024       -0.1105813588
 C       -11.7624010190        0.3673553066        0.1610441811
 O       -12.2007751481        1.1738651066       -0.5877323580
 C       -11.2833635259        0.9323291852        1.5363680773
 C       -10.2744357420        2.0637083950        1.1533722302
 O        -9.5747536132        2.1263159624        0.1721024330
 C        -9.8835074941        3.1395117924        2.2785176138
 C       -12.5030172577        1.3246417161        2.3410866113
 C       -10.3273704220       -0.1019459683        2.2745135338
 C       -13.0294131170       -2.5284877762       -4.2141520644
 C       -13.7580385285       -4.7239884194       -3.3091072166
 C        -7.3372455062       -6.6453542330       -6.4347545397
 C        -6.5957149149       -5.6444109092       -4.1558350304
 C        -9.7460758162        0.2220618476       -8.5965000971
 C        -7.3237235997        1.1774593561       -8.5572714488
 C        -5.3055496589       -1.4439106001       -3.3511140063
 C        -5.1380374158        1.0462740851       -2.4796174479
 C         1.2477246019        1.8729458449       -4.5805987400
 C         0.9547716558        1.9373991799       -7.0919816547
 C        -1.1019231541       -5.1582292713       -5.6381342116
 C        -0.6353479624       -5.9867377936       -7.9478498574
 C        -4.6087180261       -0.7431774800      -11.4286489366
 C        -6.0499966762       -2.7811240059      -11.8572402017
 C        -1.2459943194       -4.8828311297      -15.9995152418
 C         0.8850432952       -3.9897090855      -15.1922949607
 C        -0.5939082073        1.7089863274      -19.6404632031
 C         0.9211173449        1.1196775404      -21.5345321930
 C         6.5655575823        3.4387636624      -19.5310167104
 C         6.0829944534        2.8321675253      -21.9101132790
 C         5.1005166720       -4.1363870658      -18.7648695841
 C         6.8247489688       -4.4586957612      -20.5551821012
 H         3.5913422794       -5.9796893679      -22.6452136294
 H         5.2623423060       -6.1484308156      -21.9934814963
 H         4.8734979894       -4.8677238308      -23.1864956301
 H         7.1866401083       -1.9864941683      -22.0211438925
 H         7.3070201605       -1.3875680673      -20.2544344342
 H         5.1084506572       -0.0370703627      -21.6622800877
 H         6.7197855242        0.3755584514      -22.3206428303
 H         4.1976355607        2.9084132165      -18.0580481577
 H         4.2075171363        1.2507859336      -18.5291190480
 H         1.8037131024        2.9745908796      -19.1685847375
 H         1.8999632095        2.4417412678      -17.6350162576
 H        -2.1226401072       -0.6117640713      -18.8331316661
 H        -0.7648081429       -0.4835546503      -17.7286749347
 H        -1.1006406973       -3.1064437776      -19.2147272264
 H        -2.2290206116       -2.6655101908      -17.9096938237
 H        -0.3609144627       -1.6848293847      -13.0770636554
 H        -1.0545522018       -3.4349339563      -13.0067321644
 H        -2.8920406667       -1.2308778479      -13.7126145594
 H        -2.3737306556       -1.1136072066      -12.1760615309
 H        -4.8732535894       -4.6532291277      -10.4273090989
 H        -5.0763312867       -4.2755765536       -8.6002288266
 H        -2.3937367486       -4.5677993522       -9.7529143488
 H        -3.1920379537       -5.8401929544       -9.1733649383
 H         0.5380936174       -2.8786863013       -5.9079037910
 H        -1.1323741220       -2.2203305800       -5.9637848426
 H        -0.5771919423       -0.6290780340       -7.6657945774
 H         1.0511359385       -1.1673337047       -7.7080218982
 H        -1.3029052455        2.4069928694       -4.0861631186
 H        -1.4732238414        0.6257684730       -3.7611615158
 H        -3.1847686356        2.3388215342       -5.6224772895
 H        -3.5044893429        2.2726370737       -3.8699878524
 H        -6.3401461452        2.4724436644       -4.3594393867
 H        -7.6446662104        1.6464453757       -3.5579458989
 H        -7.5079539299        2.6191039074       -6.3809810434
 H        -8.8887029610        2.8888587972       -5.2202912804
 H        -9.9526278283       -2.0110315348       -7.1790382163
 H        -9.0060745749       -2.2224479004       -5.5978868106
 H        -8.2346433829       -3.8442272188       -8.1548189987
 H        -9.5176468112       -4.3588382968       -7.0127476893
 H        -8.8337423969       -4.9734462411       -2.9380254149
 H        -9.0695220232       -6.8406177682       -2.9325630353
 H       -11.1767297346       -5.6965685405       -2.1334100426
 H       -11.5448774412       -6.3198887377       -3.7132931404
 H       -13.3934987285       -1.2180969005       -1.6066712352
 H       -11.9165214165       -1.0368475787       -2.3309868538
 H       -10.7581695114       -1.5732818944        0.0494752667
 H       -12.4054675656       -1.5258627032        0.7359087291
 H        -8.9308805804        3.5356824698        2.0043090259
 H        -9.5855831691        2.6450426614        3.1630610066
 H       -10.5405380818        3.8625228191        2.6597115148
 H       -12.2447605916        1.4656406612        3.3482116938
 H       -13.1620887765        0.4875559595        2.3839091813
 H       -12.9703872956        2.2141283526        1.9599105305
 H       -10.9243416933       -0.9209588435        2.6149361243
 H        -9.9473290278        0.3380244131        3.2536438748
 H        -9.4601065321       -0.3285971245        1.6571214654
 H       -13.0300451065       -2.9408652222       -5.2730816952
 H       -12.2993351538       -1.7645137441       -4.3770118493
 H       -14.0062739764       -2.2332122693       -3.8431617464
 H       -14.8529546004       -4.4544847855       -3.2901592931
 H       -13.5375233697       -5.2137510315       -2.3035373648
 H       -13.5272016839       -5.5599648327       -4.0129322284
 H        -8.2980272885       -6.8173074419       -7.0371919229
 H        -7.0977759304       -7.5685944374       -5.9348996130
 H        -6.5913384343       -6.4093791912       -7.1514167037
 H        -5.6154725954       -5.4928671263       -4.6360305972
 H        -6.4755931965       -6.6016793081       -3.6060923338
 H        -6.7491497801       -4.9474441236       -3.3654303957
 H        -9.4790029383        0.1272693234       -9.6180911009
 H       -10.3065604845        1.1633203182       -8.4193255090
 H       -10.3556716984       -0.6136845095       -8.3394111553
 H        -6.4811391379        1.7468490055       -8.0561651807
 H        -7.7159502460        1.9486986300       -9.1482297734
 H        -6.7927844359        0.4088565399       -9.1067507929
 H        -6.1947151501       -1.5961285598       -2.7883803164
 H        -4.5909646558       -1.8162046881       -2.7317237711
 H        -5.4943432427       -2.2005901231       -4.1561439769
 H        -4.2242694420        0.8353725063       -1.8911678705
 H        -6.1291426007        0.8958233891       -1.9120671088
 H        -5.0426402307        2.0787510255       -2.8329831489
 H         2.2820644484        2.0780448931       -4.7310703281
 H         1.0156673867        1.1738306465       -3.8262290973
 H         0.7665752242        2.7553289371       -4.2218159863
 H         0.3279223376        1.5855338354       -7.9821993188
 H         2.0521602504        1.8071836492       -7.2595082080
 H         0.8050005932        2.9719598665       -7.0724145520
 H        -0.0079635371       -5.1750485448       -5.4597134308
 H        -1.5853613101       -6.0849086478       -5.4971254816
 H        -1.6408117634       -4.5751328702       -4.9671851406
 H        -0.7522905570       -5.9020462646       -8.9824608852
 H        -1.0833744521       -6.8834696888       -7.6758762300
 H         0.4276588441       -6.1669803680       -7.8479950818
 H        -4.5304789214       -0.4711086639      -12.5182913533
 H        -3.8530770176       -0.1254911843      -10.8052575732
 H        -5.5305172680       -0.3772608948      -11.0420060183
 H        -6.4097299865       -2.2194536421      -12.7438871132
 H        -6.7175765864       -2.7942110967      -11.0847627693
 H        -5.8926029152       -3.7696646819      -12.2554365543
 H        -0.6746079369       -5.6014376421      -16.5432348696
 H        -2.1888172989       -4.6957983018      -16.4592349227
 H        -1.3958782200       -5.2163894805      -14.9641977769
 H         1.5049492986       -4.5441309426      -15.9206884049
 H         0.8151452927       -4.5305934682      -14.2273800116
 H         1.4688289516       -3.0666349445      -15.0476076043
 H        -1.5766192123        1.5441830716      -20.1942167188
 H        -0.4055295936        2.8363078934      -19.7509092730
 H        -0.8692646069        1.5904057696      -18.6088165189
 H         1.3944490667        2.1511490195      -21.3237337940
 H         0.0459502357        1.4109640730      -22.0808665150
 H         1.5912500194        0.5936902895      -22.1282371955
 H         7.6555183580        3.1673365680      -19.3516220453
 H         6.0411538158        3.4459232358      -18.6305218942
 H         6.4886626428        4.4371795054      -19.8880564365
 H         5.5778100565        3.7350670958      -22.1191295680
 H         5.5038406072        2.1532296342      -22.5237535043
 H         7.1044815141        2.9143868269      -22.1718511489
 H         6.0598434213       -4.3253012837      -18.1498101884
 H         4.5830959955       -5.0961435636      -18.6124263154
 H         4.4201536346       -3.3568643281      -18.4697444887
 H         7.1798949055       -4.2307272133      -21.5611984085
 H         6.7146351426       -5.5411544163      -20.5055417037
 H         7.5133577761       -4.0263649981      -19.8889785834
 Na        2.3163456264       -2.2936180279      -19.3669057312
 Na       -4.9325301016       -2.0044201755       -6.8688074350
