232

 C         4.4960716664       -5.3079169775      -22.2999922349
 C         4.3679144113       -4.4202078654      -21.0700047557
 O         3.2296802475       -4.1288063291      -20.8404960472
 C         5.4878436288       -3.8745325882      -20.2091956082
 C         5.4688249530       -2.1579186914      -20.3635814305
 O         4.5070308960       -1.5377632324      -19.9550008918
 C         6.5060021022       -1.4760741333      -21.1324152574
 C         6.2270915017       -0.0358040793      -21.3639466003
 C         6.1699318431        0.9303700225      -20.1588184144
 O         6.2755857124        0.5243994690      -19.0063583790
 C         5.6958734360        2.4117539713      -20.3780257216
 C         4.1594226274        2.3554684841      -20.2572888177
 O         3.3548452592        2.4896864852      -21.1602318447
 C         3.6540609355        2.2854541048      -18.7317981975
 C         2.1411358896        2.2236495764      -18.6072949536
 C         1.6919851616        0.8800970716      -19.2001508542
 O         2.4211142822       -0.0963948456      -19.0384364769
 C         0.3554631162        0.8193625872      -20.0010246701
 C        -0.0953308937       -0.7512398355      -19.8734818811
 O         0.1332471402       -1.5770647494      -20.7224046903
 C        -1.1220306244       -1.0923091916      -18.8254675410
 C        -1.0332130029       -2.6087265068      -18.4302493524
 C        -0.0698619678       -3.0495428929      -17.4032223232
 O         1.1365517202       -2.8921922162      -17.5680764081
 C        -0.4761550710       -3.6465509917      -15.9263730445
 C        -1.2402663569       -2.5365349562      -15.1233614075
 O        -1.9236582221       -1.7574469742      -15.7568026514
 C        -1.0982032788       -2.4750289194      -13.6409767306
 C        -2.3908803854       -1.9918456481      -12.8898661827
 C        -3.4256883952       -2.9305401060      -12.0783974733
 O        -3.2958580912       -4.1396772511      -12.2349950805
 C        -4.6571850440       -2.2456698200      -11.4229367698
 C        -4.5017568797       -2.6797980719       -9.8989038010
 O        -4.2264021845       -1.8033489946       -9.1137001886
 C        -4.4864965961       -4.1619848607       -9.5815038325
 C        -3.1015778831       -4.6539238430       -9.0745732859
 C        -2.8057803085       -4.5622006728       -7.5618008760
 O        -3.6318577687       -4.4073037725       -6.6945595702
 C        -1.2977969399       -4.8779230291       -7.1655859639
 C        -0.5445839561       -3.5511930562       -7.5608495914
 O        -0.3957969146       -3.2930068566       -8.7586420758
 C        -0.2340841376       -2.5208359762       -6.3971681936
 C         0.3079214293       -1.2196104652       -7.0927251655
 C         0.8332258371       -0.3720620797       -5.9262882207
 O         1.2628344903       -0.9392788496       -4.9376171426
 C         0.5228599750        1.1371763261       -5.9205607478
 C        -1.0342355797        1.5300740367       -5.7501685931
 O        -1.6794527996        1.7059734701       -6.7796311709
 C        -1.6876712103        1.6378922992       -4.4110412718
 C        -3.2488986333        1.5445290604       -4.6251837239
 C        -3.8806199305        0.1834835673       -4.6172332617
 O        -3.5302665894       -0.6976025818       -5.3983796936
 C        -5.2120309710        0.0504781895       -3.7440900923
 C        -6.3236740568        0.4365811588       -4.7231867672
 O        -6.4852821631       -0.3467407146       -5.6535977723
 C        -7.1993647075        1.6885638137       -4.5630048682
 C        -8.1209670581        2.0627250167       -5.6773093737
 C        -8.9810298059        0.9184434775       -6.3507408328
 O       -10.0702472754        0.6868606914       -5.8917576272
 C        -8.4295149121        0.2260687378       -7.7415755196
 C        -7.9424959029       -1.2295682119       -7.5393607287
 O        -6.8994797238       -1.6986237358       -7.9679363883
 C        -8.8826807329       -2.0999903262       -6.7421128962
 C        -8.5309395255       -3.5942851081       -6.8819022630
 C        -7.4627830399       -4.1650156673       -6.0074864536
 O        -6.4727106279       -3.4836996263       -5.7052861193
 C        -7.6033842582       -5.6264766754       -5.3096476497
 C        -9.0482349738       -5.9704345113       -4.8514970282
 O        -9.8426244063       -6.2468655009       -5.7111966443
 C        -9.4428302150       -5.8790159070       -3.3430032266
 C       -10.9400361439       -5.5154585851       -3.2158716621
 C       -11.2466224746       -4.1029114817       -3.6304326813
 O       -10.4024129231       -3.3560109915       -4.1359404532
 C       -12.6240615594       -3.5224656885       -3.2863548069
 C       -12.2665689800       -2.9619682426       -1.8125465839
 O       -11.9644160619       -3.7967447748       -0.9992979339
 C       -12.3160368995       -1.4883441305       -1.5554117274
 C       -11.9075917483       -1.2338205152       -0.1149564584
 C       -11.7921627461        0.3031129642        0.1473647067
 O       -12.1804364255        1.0521811892       -0.7139503971
 C       -11.1651535480        0.9041924691        1.5017266469
 C       -10.0839493063        2.1500995377        1.1589794992
 O        -9.6461867176        2.1842376158        0.0191376829
 C        -9.9481952358        3.1998475819        2.2498981274
 C       -12.3968508334        1.0789454944        2.4635591757
 C       -10.2176218172       -0.0938010028        2.2784644625
 C       -13.1059398175       -2.4738390680       -4.3805308534
 C       -13.6466333645       -4.6772545724       -3.2142037652
 C        -7.1978271413       -6.6453209565       -6.3917458003
 C        -6.5514405685       -5.7096691195       -4.1606673821
 C        -9.6111147217        0.1830419786       -8.6575889996
 C        -7.3621937826        1.0868942645       -8.4375200081
 C        -5.0818862890       -1.3454186451       -3.2676069139
 C        -5.2735163907        0.9880997901       -2.5394608222
 C         1.2507813354        1.7926509856       -4.6802291065
 C         1.0409329678        1.8960143769       -7.1798761478
 C        -1.0127581420       -5.0489449006       -5.6401663468
 C        -0.7187929929       -6.0121665635       -7.9710345651
 C        -4.7341009074       -0.6425188603      -11.4805866111
 C        -5.9878626308       -2.8730383921      -11.9558114593
 C        -1.5239087721       -4.8889842646      -16.1368444503
 C         0.7653112254       -4.0191823312      -15.0824444678
 C        -0.7183654762        1.7952596857      -19.6264098773
 C         0.8892074780        0.9072393763      -21.4190212447
 C         6.3670509396        3.4297938341      -19.3923193004
 C         6.0647933597        3.0010481337      -21.8621530369
 C         5.0685855379       -4.1097728964      -18.7791316734
 C         6.8861700410       -4.6198354060      -20.5048720766
 H         3.6502771240       -5.9564483296      -22.4276981196
 H         5.3998369512       -5.9583781375      -22.2355402222
 H         4.5726381249       -4.7018800409      -23.2232686898
 H         6.4604358910       -1.9932466077      -22.1135850516
 H         7.5308905428       -1.6233587668      -20.6366593141
 H         5.2575869170        0.0510365929      -21.8456783216
 H         6.8903929996        0.2365755934      -22.1257625602
 H         4.0856879445        3.1779435315      -18.2482450418
 H         4.1499851529        1.4171679109      -18.2554277347
 H         1.6028617324        3.0900212302      -18.9439083386
 H         1.7754329701        2.2194071292      -17.5645777547
 H        -2.1204071819       -0.8350622370      -19.2151424801
 H        -1.0212204342       -0.5205688335      -17.8714355831
 H        -0.7481836467       -3.2456984381      -19.2674422176
 H        -2.0459540860       -2.8810495326      -18.1357546757
 H        -0.5195243778       -1.6054205756      -13.4391023195
 H        -0.6913638080       -3.3725322157      -13.2259336640
 H        -2.9340720442       -1.3580969929      -13.6223646993
 H        -2.1265525504       -1.1613974477      -12.2184139566
 H        -4.7624489238       -4.6030224326      -10.5311515481
 H        -5.1786682945       -4.4273961335       -8.7644037548
 H        -2.3619999358       -4.1226083243       -9.6319896435
 H        -2.7944686096       -5.6327371177       -9.4351559733
 H         0.5330739684       -2.8320398796       -5.6793057933
 H        -1.2151944431       -2.2486446919       -5.8751223875
 H        -0.4908706385       -0.7109358407       -7.6712573588
 H         1.0981645557       -1.4813987092       -7.8133176802
 H        -1.4488866478        2.5568444308       -3.9839487731
 H        -1.4446719793        0.8060599701       -3.6979998279
 H        -3.3172984523        2.0332553279       -5.6534112322
 H        -3.7736501628        2.2740575677       -3.9532011756
 H        -6.5096284844        2.5046714261       -4.2635384014
 H        -7.8277779548        1.5002995682       -3.6163140668
 H        -7.5960894563        2.6688810223       -6.4001805419
 H        -8.8868675096        2.7078588217       -5.2004406463
 H        -9.8982687243       -1.7722184811       -7.0129314860
 H        -8.6922655566       -1.8841407135       -5.7093506774
 H        -8.2070527262       -3.7633662925       -7.9662254065
 H        -9.4401875680       -4.1905080036       -6.7724897676
 H        -8.8001957516       -5.1055090377       -2.7563906993
 H        -9.3002385418       -6.9009298390       -2.8962232969
 H       -11.2125906068       -5.6918524383       -2.1773197206
 H       -11.6050794725       -6.1988759513       -3.7459392652
 H       -13.3259375190       -1.1026375525       -1.8387584362
 H       -11.7630030266       -0.9915363702       -2.4047379420
 H       -10.9261640960       -1.6282503228        0.0879947220
 H       -12.6100084596       -1.6776928578        0.6139904300
 H        -9.0142941793        3.7389082015        2.1427707567
 H        -9.7534310197        2.6529453421        3.1615076204
 H       -10.8002282274        3.7453781579        2.5586333463
 H       -12.0747402943        1.1595618106        3.5329122963
 H       -12.9430049158        0.1352417589        2.5021974877
 H       -13.0950880439        1.9427335751        2.1816608192
 H       -10.9027788109       -0.7609996336        2.7666941006
 H        -9.8276492503        0.4262965297        3.1728320940
 H        -9.3444543734       -0.4952005946        1.7695923211
 H       -13.2378381827       -2.8903564746       -5.3341826460
 H       -12.1923650016       -1.8868711694       -4.6479694891
 H       -13.9300859446       -1.9350459025       -3.9861567759
 H       -14.6588528981       -4.2759784446       -3.3564865009
 H       -13.6558351532       -5.2239926543       -2.3122078846
 H       -13.5020009676       -5.3486331924       -3.9708003094
 H        -7.9339617344       -6.7103911027       -7.2302864855
 H        -7.0935397701       -7.6519273889       -5.9517304340
 H        -6.2533952957       -6.3243623673       -6.8565687569
 H        -5.5825170533       -5.5140343704       -4.6537027006
 H        -6.4193946252       -6.6747392667       -3.7342375036
 H        -6.6886152616       -5.0417406324       -3.2769267172
 H        -9.2884999773        0.1954322634       -9.6997884159
 H       -10.2225988537        1.0301351700       -8.4690121263
 H       -10.1378710455       -0.6875354155       -8.5488835540
 H        -6.4309698578        1.4509719533       -7.9459155631
 H        -7.7777636252        2.0097590850       -8.7632730901
 H        -6.9940470462        0.4747745811       -9.2304531730
 H        -5.7647320045       -1.6511562511       -2.4946111236
 H        -4.1516694383       -1.5209384825       -2.7493878190
 H        -5.1829811506       -2.0664509974       -3.9564798789
 H        -4.7947679720        0.4898540681       -1.6753238244
 H        -6.3025491462        1.2980710795       -2.3647657082
 H        -4.6413008980        1.9512163934       -2.7287561490
 H         2.3228325063        1.5896125024       -4.6310653503
 H         0.7782379478        1.3779428626       -3.8594366872
 H         1.0598759064        2.7665070377       -4.6135141355
 H         0.5206034705        1.5508120685       -8.0596190670
 H         2.1643899895        1.8590212652       -7.3040066540
 H         0.8403694136        2.9625429272       -7.1379944169
 H         0.0223581045       -4.9578828034       -5.5538787573
 H        -1.5317045842       -5.9161496507       -5.2405338588
 H        -1.5583287126       -4.3136365230       -4.9960580503
 H        -0.7379300316       -5.8532882999       -9.0141984668
 H        -1.1286841255       -6.9337613090       -7.7859025873
 H         0.2925332920       -6.0871556807       -7.7666100876
 H        -5.0164594560       -0.2610505505      -12.4972869697
 H        -3.7958223605       -0.1899864553      -11.2029449537
 H        -5.4222168161       -0.2330308652      -10.7357518437
 H        -6.3552503484       -2.3130833888      -12.7936332368
 H        -6.6685200811       -3.0219142867      -11.1168567234
 H        -5.7805018553       -3.8211268432      -12.4245719186
 H        -1.0628054115       -5.8526323348      -16.3788323535
 H        -2.2198685012       -4.6579561215      -16.8904619961
 H        -1.9449617637       -4.9498802112      -15.2099725268
 H         1.6368173692       -4.3359943504      -15.6432756472
 H         0.5155365456       -4.7539614824      -14.3509117898
 H         1.0829340150       -3.1393828532      -14.5330960817
 H        -1.6054216978        1.6641938339      -20.2095402787
 H        -0.4919535554        2.8219163720      -19.7964646957
 H        -1.0003953246        1.7307459035      -18.5372825609
 H         1.3036492139        1.8074936307      -21.5748991196
 H        -0.0067518581        0.8709434609      -22.0327907227
 H         1.6518681389        0.1413613418      -21.8124292340
 H         7.3295203195        3.3348986455      -19.6110044665
 H         6.1914359993        3.1960565993      -18.3439850598
 H         6.0448944509        4.4502654921      -19.5890908032
 H         5.8163724750        4.0535327515      -21.9249110297
 H         5.5288061851        2.5411201148      -22.5896114411
 H         7.1490236891        2.8400810166      -21.9901777556
 H         6.0153700417       -3.9505876950      -18.2391577042
 H         4.7451014266       -5.0893157759      -18.3829413031
 H         4.2753048835       -3.3827514672      -18.6140575105
 H         7.1337725763       -4.5853603120      -21.5245703466
 H         6.7557577606       -5.6179117028      -20.2151194501
 H         7.7006661378       -4.1180926357      -20.0113361294
 Na        2.1700768564       -2.5038233704      -19.6400001291
 Na       -5.0540360591       -2.1518793919       -6.6604854769
