232

 C         4.6457387887       -5.2717943196      -22.3424713513
 C         4.3759656876       -4.3605853445      -21.1014129152
 O         3.2345540426       -4.0909824661      -20.8872478176
 C         5.4527174445       -3.7278224014      -20.0875383946
 C         5.4228398402       -2.1839192480      -20.3328519762
 O         4.4480470737       -1.5998053831      -19.8887568176
 C         6.5322168684       -1.4525674551      -21.1696155064
 C         6.3430200441        0.1022510919      -21.4280757217
 C         6.0437391901        1.0075007188      -20.1445447938
 O         6.3995117634        0.6675095381      -19.0324016009
 C         5.6071120695        2.4704698807      -20.3291486149
 C         4.0070195865        2.5309980245      -20.1576253698
 O         3.3360603722        2.2668282933      -21.1065024552
 C         3.5489432447        2.4886826226      -18.6935208891
 C         2.0639927360        2.2577186111      -18.5982655918
 C         1.6345401699        0.8148226070      -19.0721199477
 O         2.3441452595       -0.1574296806      -18.9349820887
 C         0.2432784796        0.7729822778      -19.9931420394
 C        -0.2389507263       -0.7160807266      -19.8812668587
 O         0.1797673564       -1.4210137012      -20.7913874233
 C        -1.1832531608       -1.2513406120      -18.8213550577
 C        -0.9802755028       -2.8210357582      -18.5349961785
 C         0.1100016079       -3.1316004950      -17.4169907288
 O         1.2804946212       -2.8250225711      -17.5506567236
 C        -0.4868648770       -3.6296455033      -16.0353816248
 C        -1.4029541454       -2.5352473938      -15.2294228510
 O        -2.0764309016       -1.6705342177      -15.8291853530
 C        -1.2097060229       -2.5636134789      -13.6694317351
 C        -2.3750396487       -1.8290322567      -12.8767575702
 C        -3.3694509277       -2.9037255071      -12.2493695529
 O        -3.2728090299       -4.1219080054      -12.2579220766
 C        -4.6299532129       -2.3110123382      -11.4377529752
 C        -4.4633303054       -2.6530271317       -9.9174434410
 O        -4.3593364658       -1.8622335159       -9.0120679208
 C        -4.5257078370       -4.1375219471       -9.5001174495
 C        -3.0442392812       -4.4991280066       -9.0336468847
 C        -2.8498972611       -4.6401591035       -7.5615801143
 O        -3.6814734288       -4.2687456937       -6.7325313858
 C        -1.2707181660       -4.9018210454       -7.1747713799
 C        -0.5762106531       -3.5610608869       -7.6412770739
 O        -0.2852093081       -3.2741772166       -8.7913805728
 C        -0.2151717883       -2.5968409909       -6.5363666066
 C         0.4209642083       -1.2344943853       -7.0592094233
 C         0.7538063542       -0.3302023022       -5.8251300336
 O         1.3867997731       -0.7961666933       -4.9299154877
 C         0.5338197516        1.2364428893       -5.9407471476
 C        -0.9602482730        1.5573380203       -5.8131711673
 O        -1.6317834975        1.8316939029       -6.7407501331
 C        -1.6570934590        1.6748544139       -4.3890208596
 C        -3.2538080829        1.6178127043       -4.6789001974
 C        -3.8649698185        0.2404886860       -4.6105866781
 O        -3.5102154781       -0.7215216486       -5.2348478336
 C        -5.1065082890        0.0672378489       -3.6134715752
 C        -6.2664841512        0.3066089257       -4.7351373716
 O        -6.3623564347       -0.3060811519       -5.7737624219
 C        -7.2480346774        1.5501491534       -4.5170330637
 C        -8.0752585010        1.9907472862       -5.7287280071
 C        -8.9124201212        0.9466981364       -6.3841900623
 O       -10.0291148969        0.7173811402       -5.9150901175
 C        -8.5236038278        0.2363948815       -7.7980453426
 C        -7.9028332162       -1.2768177164       -7.4848354230
 O        -6.9633963946       -1.5639646789       -8.1860143669
 C        -8.7750033960       -2.1439910848       -6.5694745494
 C        -8.6098939195       -3.6355729471       -6.6819705632
 C        -7.4888155046       -4.1736408756       -5.7382508321
 O        -6.5334158391       -3.5126988429       -5.4240333381
 C        -7.4712734095       -5.6717085114       -5.2422154149
 C        -9.0156459279       -5.9058039489       -4.8339761537
 O        -9.8166847488       -6.1964522330       -5.6760395443
 C        -9.4434694391       -5.9001757408       -3.3948036110
 C       -10.9007074159       -5.4690773753       -3.2379429702
 C       -11.2085332628       -4.0555819113       -3.6938248044
 O       -10.3539932992       -3.3436665150       -4.2472808462
 C       -12.6333609249       -3.4883093855       -3.2870952323
 C       -12.3770235887       -2.9168353281       -1.8750522650
 O       -11.9980816612       -3.7276976829       -1.0614859913
 C       -12.2574060504       -1.4296618738       -1.5446084873
 C       -11.9442010042       -1.2387069947       -0.0636334817
 C       -11.6887411737        0.2718719587        0.0944902710
 O       -12.1474393098        1.0497806192       -0.7562618377
 C       -11.0700125948        0.7493932928        1.4524611661
 C       -10.2889315819        2.1577600478        1.1453877534
 O        -9.7249434673        2.2460602403        0.0624974045
 C       -10.0505872319        3.1400693888        2.1586624215
 C       -12.1640393490        1.0527283385        2.4429251315
 C       -10.0616048632       -0.2032909115        2.1563346114
 C       -13.1079655392       -2.4074881750       -4.3861029616
 C       -13.6958840989       -4.6030798740       -3.1080039254
 C        -7.0382864607       -6.6208029374       -6.4229224009
 C        -6.4785644279       -5.7600286132       -4.1502332245
 C        -9.6772884211        0.1825028278       -8.8496692206
 C        -7.2902014990        1.0023703049       -8.2859114742
 C        -5.0533223666       -1.3977994501       -3.1205679358
 C        -5.3369210195        0.9699386911       -2.3169628355
 C         1.3436608499        1.7667987014       -4.6898603486
 C         1.1781335247        1.7976158499       -7.2813848381
 C        -1.1500741792       -5.1280377399       -5.6330300680
 C        -0.7283282625       -6.0636932711       -7.9666400685
 C        -4.8138597270       -0.7842197774      -11.5525733692
 C        -5.8601739589       -2.9524294886      -12.0684464834
 C        -1.6095187311       -4.7676179366      -16.2654334084
 C         0.6768098248       -4.2046568879      -15.1777275616
 C        -0.7732431690        1.7620767668      -19.6211044316
 C         0.7499230070        0.7895924864      -21.5427755337
 C         6.2112117057        3.3058408627      -19.2443559008
 C         6.0161019733        3.0376695614      -21.7945675779
 C         5.1086685728       -4.1109099702      -18.5980467352
 C         6.8243539335       -4.5132945989      -20.4611339913
 H         3.9637436349       -6.0546032729      -22.4677674896
 H         5.6275458226       -5.6909390847      -22.3012427617
 H         4.5942510335       -4.6583456366      -23.2530368789
 H         6.4489797818       -1.9779277410      -22.1364468108
 H         7.5108577408       -1.6608339799      -20.7590559706
 H         5.6858148845        0.2978003194      -22.3002333560
 H         7.2521562953        0.4431969447      -21.7868517582
 H         3.8380578090        3.4724268934      -18.3102800963
 H         4.2091317994        1.7399819283      -18.1690281907
 H         1.4666237525        3.0620168305      -19.0827270249
 H         1.6929562341        2.3466008389      -17.5780565274
 H        -2.1850683268       -1.0097453632      -19.1138413495
 H        -1.0361013659       -0.7245783975      -17.8485803777
 H        -0.5961475793       -3.3516098789      -19.3583435186
 H        -2.0165722805       -3.1993014649      -18.3073670344
 H        -0.3912954111       -2.0089574714      -13.4503654297
 H        -1.2115791348       -3.5928564410      -13.3606816891
 H        -2.8938992751       -1.0896189066      -13.4900068477
 H        -2.0549652318       -1.1470030120      -12.0248323963
 H        -4.8355126931       -4.7478042852      -10.3121751644
 H        -5.1769704714       -4.2227730487       -8.6585411041
 H        -2.3419991175       -3.7594107316       -9.4185275011
 H        -2.5615024245       -5.3231883896       -9.5780128456
 H         0.5299636048       -3.0983723671       -5.9756555638
 H        -1.1506362739       -2.3949324450       -5.9000472948
 H        -0.3072005460       -0.7144320146       -7.7186070446
 H         1.3174525522       -1.5126688853       -7.7145673498
 H        -1.3989852860        2.6435248414       -3.9539067533
 H        -1.5266884197        0.9171447733       -3.7021960874
 H        -3.2699586175        1.9782328546       -5.6773166232
 H        -3.8592345615        2.3614987855       -4.0838258528
 H        -6.6270539282        2.3292771135       -4.1599581848
 H        -7.9676769423        1.3052407941       -3.6651150526
 H        -7.3960816356        2.4414807616       -6.5009614107
 H        -8.7137970225        2.7938826194       -5.4447427532
 H        -9.7306441314       -1.6812889386       -6.8080151629
 H        -8.5478908503       -1.9266022009       -5.5705732681
 H        -8.3056094360       -3.8110770127       -7.7314462292
 H        -9.5538336939       -4.1332963584       -6.6255241928
 H        -8.7889460752       -5.2534252783       -2.7755455806
 H        -9.3139380428       -6.9345822391       -3.0416156076
 H       -11.2130531982       -5.7111832586       -2.1904989665
 H       -11.6004109989       -6.1056236013       -3.7998530190
 H       -13.1204495221       -0.7984003314       -1.8736828658
 H       -11.5315310713       -1.0303947320       -2.2642334318
 H       -11.0802549070       -1.7696933287        0.2666667276
 H       -12.7644739330       -1.4746021911        0.6036148919
 H        -9.1868680853        3.7152690183        1.8266035085
 H        -9.8659500567        2.8942844870        3.2521435824
 H       -11.0206113672        3.7315089362        2.3484420340
 H       -11.7446781783        1.4350340645        3.4512515472
 H       -12.7851659185        0.1402967142        2.7942432943
 H       -12.8363518434        1.8076469448        1.9729289027
 H       -10.6809201830       -0.9872576767        2.6104374175
 H        -9.6087190316        0.2471139413        2.9796438485
 H        -9.2237851673       -0.4905691307        1.5114756570
 H       -13.3908402816       -2.8170767270       -5.2910693710
 H       -12.1763515105       -1.9844004519       -4.7072117362
 H       -13.8203344262       -1.7063322806       -3.9797071281
 H       -14.5346584362       -4.0410488917       -3.0595826674
 H       -13.5774293881       -5.2906703751       -2.3389272092
 H       -13.8987154089       -5.1253649505       -4.0010300395
 H        -7.5462103226       -6.4936849720       -7.3275141904
 H        -7.1893078732       -7.6764648054       -6.0832268448
 H        -5.9382427760       -6.4313900886       -6.6702723284
 H        -5.4440913229       -5.6396611601       -4.3835923094
 H        -6.5401568082       -6.7614029983       -3.7374196997
 H        -6.7711825935       -5.0848483640       -3.2996750272
 H        -9.2630483186       -0.0527209214       -9.8239201950
 H       -10.2123026075        1.0703999753       -8.9374786336
 H       -10.3114958916       -0.7078817799       -8.6195750497
 H        -6.4504331056        0.8535941544       -7.7082657029
 H        -7.4322767396        2.1056425438       -8.1736174798
 H        -6.9815024205        0.7251428411       -9.3052951814
 H        -5.7806885362       -1.6875515878       -2.3718119809
 H        -4.1533615652       -1.7673047674       -2.5863642211
 H        -5.1710098906       -2.1194782687       -3.9506928211
 H        -4.9196346251        0.3426523380       -1.5150759274
 H        -6.4073124567        1.0747874346       -2.2167256625
 H        -4.9026477038        1.9491983569       -2.2270662906
 H         2.2279405880        1.2002830753       -4.7667115491
 H         0.8885071891        1.5623683402       -3.7227595056
 H         1.6115013758        2.8825712047       -4.7142532947
 H         0.6427559420        1.2901610331       -8.0202873252
 H         2.2224097095        1.6597078424       -7.3725861575
 H         1.0408244914        2.9070263347       -7.5179798359
 H        -0.1082194415       -5.0499302177       -5.3671147136
 H        -1.7636052879       -6.0014145324       -5.3610832252
 H        -1.7300917760       -4.4140387165       -5.0079624581
 H        -0.5513825155       -5.8466470788       -9.0082565075
 H        -1.3800645818       -6.9894855281       -7.9346148033
 H         0.2184857241       -6.3581962444       -7.5898136499
 H        -5.3148216096       -0.4343609649      -12.4132153585
 H        -3.8636932634       -0.3875809183      -11.5476666665
 H        -5.3047447698       -0.2894554191      -10.6650615961
 H        -6.0592524800       -2.4526940832      -12.9838475642
 H        -6.6785879146       -2.9978766082      -11.2625245072
 H        -5.6855717768       -3.9640489115      -12.4445323769
 H        -1.1950294493       -5.7465621132      -16.3520793301
 H        -2.1165993150       -4.5860066802      -17.2250751076
 H        -2.2048262968       -4.7637025430      -15.3565946342
 H         1.4861519247       -4.5704317791      -15.7629927101
 H         0.3297984477       -5.0095149877      -14.5796233870
 H         1.0340031958       -3.4648207829      -14.4887458226
 H        -1.6169724804        1.8057521650      -20.2298670706
 H        -0.3343769053        2.6491323049      -19.9354907735
 H        -1.0607109863        1.9119597052      -18.5822285183
 H         0.9700608820        1.7970067666      -21.9553121413
 H        -0.0611224988        0.3476017750      -22.1484656343
 H         1.6697794488        0.2109586787      -21.7067273394
 H         7.1657647215        3.7315753880      -19.5981343204
 H         6.4036515398        2.5912812857      -18.4176319670
 H         5.5215443194        4.0764597179      -18.9261420718
 H         5.9252910187        4.1331759909      -21.7260556579
 H         5.3806294420        2.6390708166      -22.6479434224
 H         7.0575591644        2.7349421780      -21.9350908068
 H         5.8496624204       -3.7160761612      -18.0064993478
 H         5.2163351556       -5.1629769183      -18.3704762590
 H         4.0454090330       -3.8385978225      -18.4103721652
 H         7.0589608973       -4.5107907720      -21.5015918197
 H         6.7145566054       -5.4896642357      -20.0505455745
 H         7.7000959673       -4.0114820155      -20.0385324072
 Na        2.0525603273       -2.5821360735      -19.8980029970
 Na       -5.0292179278       -2.2698966279       -6.5243700893
