232

 C         4.8519851289       -5.1265697118      -22.2356700709
 C         4.3735731473       -4.3416547577      -21.0845679161
 O         3.1291868696       -4.1255522722      -20.9913893588
 C         5.4226470991       -3.7783828909      -20.1170224785
 C         5.3145139242       -2.2146610949      -20.3730183950
 O         4.3778034231       -1.6559547576      -19.8874046442
 C         6.5041707471       -1.4139637542      -21.0843339970
 C         6.3659602896        0.1417729722      -21.3775861340
 C         6.1887786318        0.9996717002      -20.1655406111
 O         6.4497872816        0.6068357280      -19.0722955941
 C         5.6150487298        2.5747618638      -20.2612916756
 C         3.9645135149        2.3970026828      -20.1230970812
 O         3.2015035948        2.1244854390      -21.0327392381
 C         3.3831343444        2.6317964516      -18.7054973803
 C         1.9024713915        2.1984318179      -18.6453286689
 C         1.5589165024        0.8200221879      -19.1753070182
 O         2.1598023011       -0.1855222791      -18.8239107100
 C         0.2647136931        0.7159554768      -20.0789470460
 C        -0.3094767883       -0.8569373294      -19.9579151627
 O         0.1799190468       -1.6807058611      -20.7371379802
 C        -1.1196937695       -1.3879345643      -18.7450566835
 C        -0.8760074513       -2.8618963859      -18.6386708162
 C         0.0315114159       -2.9907052384      -17.3987289124
 O         1.2312930276       -2.9087610023      -17.5577677833
 C        -0.5868612564       -3.5682564524      -16.0823003538
 C        -1.3454728451       -2.4621744960      -15.3155999694
 O        -2.1396985581       -1.7340341022      -15.8511181146
 C        -1.3594607834       -2.6883156223      -13.8022616769
 C        -2.3952770922       -1.8568554923      -12.9295532706
 C        -3.3210561422       -2.7519202158      -12.2772785208
 O        -3.1351719217       -3.9663390693      -12.3632500684
 C        -4.5951183223       -2.3124321588      -11.4078157569
 C        -4.5774394308       -2.6899478996       -9.8670461702
 O        -4.4906861878       -1.8040906083       -9.0189619586
 C        -4.5285341829       -4.2068512262       -9.4055107356
 C        -3.0046863886       -4.4579873743       -9.1107938591
 C        -2.7542977909       -4.4911148013       -7.6232392257
 O        -3.6010832249       -4.2076236088       -6.7410628767
 C        -1.3540362930       -4.8623510457       -7.1940472924
 C        -0.4852427059       -3.4984634891       -7.6398378196
 O        -0.2908006364       -3.4436197502       -8.8066787249
 C        -0.1377188343       -2.5347922830       -6.5384545826
 C         0.4149381064       -1.1920217255       -6.9924805138
 C         0.8218128788       -0.2725125746       -5.8319337250
 O         1.4305694547       -0.7644347223       -4.8834705440
 C         0.6398427254        1.2341388669       -5.9001321438
 C        -0.9100724111        1.7005280266       -5.8630312989
 O        -1.4739775152        1.9169641495       -6.9195448073
 C        -1.6547584151        1.6407879193       -4.5398201132
 C        -3.1898630211        1.6833061531       -4.5990450769
 C        -3.8288044894        0.3074335641       -4.3758458793
 O        -3.4645390501       -0.6013026688       -5.0934748366
 C        -5.2089074355        0.0030750443       -3.5582149827
 C        -6.2462373542        0.2684148282       -4.6405066488
 O        -6.1843157821       -0.3182391626       -5.6993772779
 C        -7.3016828389        1.3447587000       -4.4029066546
 C        -7.9054854466        1.9378173124       -5.7297354160
 C        -8.9837766703        0.9549535010       -6.4758905496
 O       -10.0162939938        0.5872342307       -5.9945552909
 C        -8.4211054829        0.3348942310       -7.7984055193
 C        -8.0828074742       -1.2049313883       -7.5950189933
 O        -7.1485985886       -1.6414083977       -8.2061557745
 C        -8.6732489846       -2.1227259201       -6.4695538823
 C        -8.4602341719       -3.6610993707       -6.5593657591
 C        -7.4136874419       -4.2090930730       -5.6490541468
 O        -6.6249808579       -3.4606388906       -5.1390707469
 C        -7.4567578110       -5.7255597300       -5.1284551863
 C        -8.9764365497       -6.0607116795       -4.8472346565
 O        -9.7938189630       -6.1651367099       -5.7789969008
 C        -9.3943044741       -5.8927552551       -3.3410479495
 C       -10.8637011709       -5.4584780758       -3.2384674110
 C       -11.2194908474       -4.0658485313       -3.8006535019
 O       -10.3869223013       -3.3680367061       -4.3186630788
 C       -12.6146371465       -3.4448954381       -3.3729535409
 C       -12.2563627982       -2.9651051731       -1.9314914957
 O       -12.1010255391       -3.7420304432       -0.9814994290
 C       -12.2220923041       -1.4370522185       -1.6152156613
 C       -11.9892152528       -1.2077834438       -0.1197516348
 C       -11.6851340146        0.2875111866        0.1678060614
 O       -12.0113894878        1.1138880867       -0.6373219015
 C       -10.9723082904        0.7196871036        1.4701140159
 C       -10.2576859439        2.1234377547        1.0639198286
 O        -9.7831361557        2.2468819663       -0.0326092193
 C       -10.1937501193        3.1788567075        2.2297435059
 C       -12.0959460829        1.1107001690        2.4508504635
 C        -9.9199369577       -0.3088734902        1.8975257654
 C       -13.0418980436       -2.3505587186       -4.3100426577
 C       -13.7607074526       -4.4782708953       -3.1275269612
 C        -7.0215842029       -6.5168971850       -6.4055684623
 C        -6.4575108136       -5.8826347097       -4.0204579177
 C        -9.6058954153        0.1869737234       -8.7973420815
 C        -7.2020818947        1.0217710376       -8.4427767516
 C        -5.2163040560       -1.4667939864       -3.0791569137
 C        -5.2602881151        0.8912701695       -2.3127328259
 C         1.4716492735        1.9255565767       -4.7252496791
 C         1.1756834560        1.6492022740       -7.2018458813
 C        -1.3794666879       -5.2450939712       -5.7196120288
 C        -0.7656875302       -6.1064161224       -7.9480293163
 C        -4.8195288400       -0.8042007040      -11.5817072001
 C        -5.8382999288       -3.1056525432      -12.0945077605
 C        -1.5958029158       -4.6794902600      -16.3585970576
 C         0.5314171574       -4.3379673158      -15.3294373554
 C        -0.8098798654        1.7580402845      -19.6339380493
 C         0.6103333747        0.9784041329      -21.5220408399
 C         6.2386116446        3.3750939173      -19.0793455051
 C         5.8768619268        3.0765668403      -21.6718390075
 C         5.1269093396       -4.0464426204      -18.6522631094
 C         6.9226630230       -4.2406075063      -20.3861648662
 H         4.1672765363       -5.9746812302      -22.3939981621
 H         5.8429585066       -5.4694965466      -22.1649093428
 H         4.7387189845       -4.5523893298      -23.1145087623
 H         6.7560291963       -1.9562105265      -21.9921419718
 H         7.3390935884       -1.5603370536      -20.4444945468
 H         5.6391330414        0.3701316936      -22.1616848915
 H         7.3300389602        0.5023671611      -21.9174026948
 H         3.5202245055        3.7232394634      -18.5540334258
 H         4.0142421311        2.1031090815      -17.9880525230
 H         1.2204932308        2.9531545052      -19.1281661306
 H         1.5473061601        2.2229391531      -17.5866748981
 H        -2.1555005862       -1.2945956731      -19.0761171943
 H        -1.0374849150       -0.8324487920      -17.8388566590
 H        -0.2503294399       -3.2333573218      -19.4859684228
 H        -1.8386671910       -3.3480086583      -18.6105639176
 H        -0.3984907420       -2.5204727731      -13.2406678683
 H        -1.7937053571       -3.6731470618      -13.7379864953
 H        -2.9294088246       -1.0669436207      -13.4977126066
 H        -1.9195002708       -1.2523577070      -12.1383465738
 H        -4.7946429465       -4.9369597753      -10.1587552120
 H        -5.1055244486       -4.3641603371       -8.5123512745
 H        -2.3064561659       -3.9266708248       -9.8027417436
 H        -2.7501175150       -5.4575724841       -9.4933404736
 H         0.6045404235       -3.0205520819       -5.8800735308
 H        -1.0680173092       -2.4393106618       -6.0481055964
 H        -0.3450699480       -0.7112242343       -7.6308394473
 H         1.2632089522       -1.4829627445       -7.6657513189
 H        -1.3480952154        2.5253347935       -3.9091490013
 H        -1.4948255130        0.7381364523       -4.0112575480
 H        -3.4406772278        2.0272828513       -5.5576167263
 H        -3.5331117126        2.4439304171       -3.9571887023
 H        -6.7951050067        2.0929638435       -3.7939887544
 H        -8.0829329734        0.9288137703       -3.8282325689
 H        -7.1193311109        2.2783631332       -6.4331855125
 H        -8.4073548462        2.8916949659       -5.4994143450
 H        -9.6957378377       -1.8390360392       -6.3872818299
 H        -8.1648717739       -1.7766504337       -5.5393229574
 H        -8.5491494778       -3.9522227140       -7.5554126978
 H        -9.4059244696       -4.0571195239       -6.1520303982
 H        -8.7471747949       -5.1543152931       -2.9399561180
 H        -9.1972338739       -6.7761795281       -2.7313004726
 H       -11.2712564436       -5.6629132934       -2.2079927507
 H       -11.4955468424       -6.1965260730       -3.7856613132
 H       -13.1421558553       -0.9805995613       -1.9433069346
 H       -11.5593842677       -0.9092728213       -2.2537649871
 H       -11.1240480820       -1.8098125684        0.1957457602
 H       -12.8142013239       -1.4888052754        0.5035886145
 H        -9.4430887061        3.9634289221        1.8996694768
 H       -10.0419221759        3.0831388189        3.3273356143
 H       -11.2414430474        3.6038997236        2.3106793539
 H       -11.7915256701        1.5889687726        3.3848519645
 H       -12.5568119423        0.1265062044        2.7882471141
 H       -12.8821030488        1.6471026524        1.9183445031
 H       -10.3963496629       -1.2461801954        2.1264144999
 H        -9.2770306505       -0.0601436866        2.7220709891
 H        -9.2708629562       -0.3149460110        1.0423131209
 H       -13.4800493613       -2.8788423460       -5.1908101267
 H       -12.2674590383       -1.7934188304       -4.7094755934
 H       -13.8137764176       -1.7750692447       -3.7985990137
 H       -14.6464085036       -3.9866292008       -2.7599713019
 H       -13.2948193276       -5.2825710756       -2.5142329236
 H       -14.2151798504       -4.9443033660       -4.0332340300
 H        -7.4906403941       -6.2421042436       -7.3515852897
 H        -7.2614893998       -7.5514519710       -6.2094543950
 H        -5.9627323827       -6.4029644985       -6.5767908210
 H        -5.4064026543       -5.7632994672       -4.2302874922
 H        -6.5706776568       -6.9253151495       -3.6023720685
 H        -6.6854508756       -5.2045318627       -3.2243222065
 H        -9.2744736753       -0.3690181109       -9.6591281427
 H        -9.9050253519        1.1977149476       -9.1958025123
 H       -10.4401379505       -0.4264881407       -8.3542872964
 H        -6.2809611229        0.8469446923       -7.8661299024
 H        -7.2957817034        2.1133371337       -8.4279783947
 H        -7.0127617830        0.6484667289       -9.4776615172
 H        -6.0183590280       -1.7612010297       -2.3610097799
 H        -4.3784787078       -1.7461725681       -2.4305457351
 H        -5.1536034881       -2.3141006558       -3.8932909490
 H        -4.4852874070        0.5638136953       -1.6755430182
 H        -6.2573603227        0.8148548381       -1.8537189550
 H        -5.1823635176        1.9135588827       -2.4769474655
 H         2.4678648901        1.3852715180       -4.7313467686
 H         1.0426154776        1.8255100798       -3.6559461733
 H         1.6581271270        3.0392651089       -4.9529285718
 H         0.5760640903        1.0978131950       -7.9498141902
 H         2.2028842565        1.4346156660       -7.3042191200
 H         1.1305480084        2.6842867584       -7.4401766737
 H        -0.2741446613       -5.2292911589       -5.4572995437
 H        -1.9436775440       -6.1531006660       -5.6267042956
 H        -1.8673953557       -4.6171263690       -5.0183610849
 H        -0.3408215676       -5.9007375371       -8.9680868946
 H        -1.4853599352       -6.9678764861       -8.0907280161
 H         0.1286846978       -6.5383718803       -7.3339325946
 H        -5.3009578722       -0.5540706823      -12.4917665371
 H        -3.8625995482       -0.2335043141      -11.5146476217
 H        -5.4910906230       -0.4042721351      -10.8479244388
 H        -5.8174068136       -3.0070580041      -13.2074232842
 H        -6.7297825478       -2.8894800843      -11.5306251555
 H        -5.7007303077       -4.2084457846      -12.0039602751
 H        -1.0366155514       -5.5760092733      -16.6421127413
 H        -2.1491663793       -4.4577349533      -17.2839125853
 H        -2.1090700168       -4.9523466220      -15.3633672580
 H         1.0499403822       -4.9466156928      -16.0544430608
 H         0.1492123886       -5.0463833425      -14.5914501959
 H         1.1989444959       -3.6780015779      -14.8026338111
 H        -1.7234944239        1.7169269189      -20.2288993593
 H        -0.5249562027        2.7838831074      -19.9822998597
 H        -1.0004350881        1.8049921521      -18.6312190352
 H         0.6299377889        2.1523576193      -21.6664638298
 H        -0.0557806397        0.5284201928      -22.2630442812
 H         1.5829019346        0.7084054987      -21.7716931791
 H         7.2026355203        3.9997905261      -19.4195092004
 H         6.5778569288        2.5550990323      -18.4065120581
 H         5.4958710194        4.0198179640      -18.5801077815
 H         5.8021395375        4.1835062846      -21.6783832572
 H         5.1612821286        2.5941931968      -22.4665700867
 H         6.8919782865        2.7144353269      -21.9092576087
 H         5.6839455093       -3.4117265930      -17.9578659297
 H         5.4170783065       -5.0167173734      -18.3732722099
 H         4.0764246252       -4.0597962895      -18.6320064314
 H         7.4021839784       -3.8356998650      -21.3084186844
 H         7.0820762410       -5.3420014150      -20.1998292294
 H         7.4743011221       -3.7169566376      -19.6101506743
 Na        1.9763747934       -2.4472839655      -19.9768025918
 Na       -4.9586541044       -2.2905748554       -6.5143380596
