232

 C         5.0960346892       -4.9323457602      -22.1032279228
 C         4.5221500095       -4.1213591934      -20.9793551939
 O         3.3422744028       -3.9325316283      -20.8529320208
 C         5.5053323128       -3.3681590158      -19.9647328893
 C         5.3052419041       -1.7967509569      -20.4416766394
 O         4.1635313882       -1.3083224980      -20.3459095892
 C         6.4781280724       -0.9355911849      -20.9772097159
 C         6.2521713764        0.5561058610      -21.1805453485
 C         6.1303595970        1.2803130703      -19.8259147231
 O         6.6320135827        0.7721852262      -18.8729670877
 C         5.2469501752        2.5588864526      -19.7292582754
 C         3.7426311615        2.1523849946      -19.7943816683
 O         3.3247136151        1.4290085931      -20.6325072543
 C         2.7228922072        2.7037372693      -18.6714337613
 C         1.2506325489        2.3441711263      -18.9303948677
 C         0.8807097038        0.8482682497      -19.2860885396
 O         1.4772483736       -0.1131456000      -18.8068824359
 C        -0.2997293731        0.7442528531      -20.2761682602
 C        -0.5155006713       -0.8611900809      -20.1681134030
 O         0.3198601919       -1.6227643404      -20.6588143726
 C        -1.6392414803       -1.4233692932      -19.1204603106
 C        -1.4108556725       -2.9294762532      -18.9616359919
 C        -0.3995327824       -3.4170490919      -17.8170989892
 O         0.7891357395       -3.5013167844      -18.0491080934
 C        -0.8039729871       -4.0385782495      -16.3697014109
 C        -1.4535575507       -2.8243382083      -15.6508693685
 O        -1.7444995823       -1.7439090041      -16.2280290129
 C        -1.6971487293       -3.0835087046      -14.1287205265
 C        -2.8735281703       -2.3065285803      -13.5880404313
 C        -3.3246028532       -2.8567783980      -12.2346969247
 O        -2.8713817430       -3.9136683295      -11.8252058389
 C        -4.5388693458       -2.2884621040      -11.4733321985
 C        -4.5013772258       -2.6571568787       -9.8873180300
 O        -4.3312832644       -1.7403744436       -9.1244651602
 C        -4.6094114827       -4.1049403350       -9.3721850397
 C        -3.3043160134       -4.7042449020       -8.8835011551
 C        -2.6518714444       -4.1323323536       -7.6258748110
 O        -3.1477406351       -3.3209794960       -6.8650508185
 C        -1.3514184814       -4.7412530695       -7.2124649459
 C        -0.3428876696       -3.5470206689       -7.3771463271
 O         0.4028626548       -3.5267256407       -8.3194591422
 C        -0.2405366630       -2.5354877103       -6.2028413810
 C         0.2820047285       -1.2220128282       -6.7652441766
 C         0.9144780037       -0.3412973948       -5.6889775847
 O         1.2755979705       -0.7833256782       -4.5884220991
 C         0.9143462629        1.1851087857       -6.0508561965
 C        -0.5321115634        1.5454157880       -5.7117259276
 O        -1.2396372312        1.9546761526       -6.5864988148
 C        -1.1797684301        1.0804504696       -4.4238212654
 C        -2.6965043239        1.3759604332       -4.4336690622
 C        -3.5515766823        0.2104167500       -4.4301556255
 O        -3.3334367041       -0.7473013995       -5.1241449545
 C        -4.9547913746        0.1738798931       -3.5449847143
 C        -6.0561388270        0.2697235390       -4.6393379412
 O        -6.0617658859       -0.3353871242       -5.6957361967
 C        -7.0757973785        1.3807953127       -4.4538050261
 C        -7.9315246479        1.7679624465       -5.6745405285
 C        -8.6985954979        0.7067531557       -6.4285279434
 O        -9.7624009147        0.3665536439       -5.9445041907
 C        -8.3265827035        0.1198778140       -7.8022840433
 C        -7.8222498172       -1.4559052267       -7.5558238094
 O        -7.0072586758       -1.9331644038       -8.2893388238
 C        -8.5045317426       -2.2403162972       -6.3797666354
 C        -8.3066711471       -3.7305547026       -6.5010065417
 C        -7.1876861074       -4.2599517783       -5.5915126277
 O        -6.2323767993       -3.5076969032       -5.3212056405
 C        -7.3623139206       -5.7815242906       -4.9950842988
 C        -8.9695816883       -6.0338165914       -4.6374998236
 O        -9.6038448252       -6.6347118193       -5.4529515409
 C        -9.4775179260       -5.7969011075       -3.2329156581
 C       -10.9703609061       -5.5018890858       -3.1673356481
 C       -11.3569477603       -4.1523990524       -3.8649081353
 O       -10.5354640615       -3.5852254695       -4.6033116983
 C       -12.6147125189       -3.4077602790       -3.4440281901
 C       -12.4154829826       -2.9350773328       -1.9772981833
 O       -12.4982662790       -3.8067283736       -1.1487781298
 C       -12.3236221717       -1.4198314490       -1.6198163813
 C       -11.9151498620       -1.1159669739       -0.2054393035
 C       -11.6050144902        0.3771580799        0.0045909474
 O       -12.1986777736        1.1952478945       -0.6350441226
 C       -10.5174093153        0.7700283298        1.2527488151
 C        -9.9443558314        2.2915439972        1.0587858192
 O        -9.0618828056        2.6023277545        0.3226895646
 C       -10.7981959851        3.3234177251        1.7413653678
 C       -11.2526591879        0.5648334165        2.6516889510
 C        -9.3109396647       -0.2012420472        1.3090002025
 C       -12.9212435677       -2.2232209011       -4.4862707256
 C       -13.7928988377       -4.3420109494       -3.4709239510
 C        -6.9920622728       -6.7643314421       -6.1615120384
 C        -6.3791559094       -5.9303835938       -3.8237449410
 C        -9.5008669519        0.0822676352       -8.7717027051
 C        -7.2179662269        1.0630644203       -8.4157942399
 C        -4.9726164217       -1.2663808162       -2.8316539287
 C        -4.9260097793        1.2667405605       -2.4083394589
 C         1.8510392485        2.0209654436       -5.2557227687
 C         1.0392452382        1.6009748105       -7.5308923843
 C        -1.4718375398       -5.2182347859       -5.7186815105
 C        -0.8731010399       -5.8682142545       -8.1137075381
 C        -4.6168221370       -0.7419802957      -11.5479415497
 C        -5.8943743127       -2.9146109688      -12.0234604752
 C        -1.9253531020       -5.0592648950      -16.4028988388
 C         0.4667534103       -4.5284953984      -15.5756216181
 C        -1.4754662319        1.5527712709      -19.8053698277
 C         0.0575875120        0.9983756545      -21.7099357041
 C         5.6221866722        3.3898467861      -18.4777559201
 C         5.3464902657        3.4496537163      -21.0672696610
 C         5.0028838240       -3.4597399363      -18.5324466001
 C         6.9683221578       -3.8477980917      -20.1245494778
 H         4.4423992968       -4.8435229197      -22.9412693533
 H         5.0905144919       -5.9625158664      -21.8035540819
 H         6.1249972351       -4.6972115767      -22.4347546324
 H         6.8764292214       -1.3962848534      -21.8609571625
 H         7.3555659019       -1.0524553444      -20.2992686371
 H         5.3294024321        0.7476679364      -21.8683488304
 H         7.0602797253        0.8951993765      -21.7854671231
 H         2.7575704154        3.7652020181      -18.7503107654
 H         3.0664939707        2.3477499005      -17.7004236837
 H         0.9452180982        2.9858332509      -19.7593930969
 H         0.8080708395        2.5611846228      -17.9429591188
 H        -2.5935540323       -1.1644903342      -19.5621216572
 H        -1.4955545697       -0.8931680004      -18.1382610727
 H        -0.8974736014       -3.3469217186      -19.7990198045
 H        -2.3753811325       -3.4845420107      -18.7455250971
 H        -0.8353943022       -2.9363230169      -13.4273305141
 H        -2.0621148635       -4.2076793162      -14.0757984798
 H        -3.6842517372       -2.4217891840      -14.3010681358
 H        -2.4765014290       -1.2982552112      -13.6159177261
 H        -5.2229103730       -4.6869472774      -10.0713423068
 H        -5.2766109310       -3.9798481210       -8.4707906090
 H        -2.5698578993       -4.8843631879       -9.6707035890
 H        -3.5191964548       -5.7433662822       -8.5083906225
 H         0.4740523242       -2.8064541256       -5.4588750915
 H        -1.2698311168       -2.4563887414       -5.7387135611
 H        -0.5298225600       -0.7641761830       -7.2984807821
 H         1.1062930897       -1.4201157603       -7.4033568461
 H        -0.7960154114        1.4591560437       -3.4422703436
 H        -1.0615136908       -0.0365842425       -4.3725664319
 H        -2.8240967208        2.0404625726       -5.2677250421
 H        -2.9403131370        2.1033255249       -3.5936622351
 H        -6.6114076988        2.2402118093       -4.0775311455
 H        -7.7686423390        0.8775269988       -3.7406338646
 H        -7.3888132320        2.3627339795       -6.4405382015
 H        -8.6074844560        2.5247810793       -5.3113278462
 H        -9.5820601393       -1.8663259566       -6.4094016912
 H        -8.2288776284       -1.8753249144       -5.3947511255
 H        -7.9842896019       -4.0158068622       -7.4974710883
 H        -9.2236463148       -4.2540848351       -6.4596697910
 H        -8.8407929987       -5.1187620306       -2.6311678286
 H        -9.1411851796       -6.7011435958       -2.7517846078
 H       -11.3699636212       -5.6706471374       -2.1654049699
 H       -11.5535553972       -6.2942794021       -3.6448266103
 H       -13.3085111758       -0.9826357761       -1.7605446837
 H       -11.6053056942       -1.0201172624       -2.3143085616
 H       -11.0982333369       -1.7333235050        0.1457460290
 H       -12.7918760716       -1.3840125683        0.4445692431
 H       -10.5730522598        4.3246286635        1.5093889055
 H       -10.7890917942        3.2484056055        2.8323273380
 H       -11.8906865942        3.1627659587        1.7144103991
 H       -10.5993566394        1.0405793576        3.3931526439
 H       -11.2490938401       -0.5104739305        2.7911600909
 H       -12.2614076309        0.8345955430        2.8520044640
 H        -9.5729588494       -1.2721020466        1.3829154128
 H        -8.7802019001        0.0797453527        2.1644025937
 H        -8.7046320246       -0.1908906503        0.4035562153
 H       -13.4397993156       -2.4771065681       -5.3930499435
 H       -11.9721175536       -1.7153146805       -4.5620361242
 H       -13.4698016967       -1.3543755645       -4.0378140705
 H       -14.6787130336       -3.7006278640       -3.2335506500
 H       -13.8631950153       -5.1697492878       -2.6373718292
 H       -13.8038112047       -4.6793696366       -4.5924268343
 H        -7.6563562885       -6.6136484483       -6.9284213938
 H        -7.0426565313       -7.8294508145       -5.9134334213
 H        -5.9509518162       -6.6028300551       -6.5221012765
 H        -5.4176241844       -5.4250317528       -3.9632985220
 H        -6.1963589938       -6.9509431389       -3.5669028620
 H        -6.8096993926       -5.3854710420       -2.9415027515
 H        -9.1487787763       -0.0398345169       -9.8375747579
 H       -10.1216425175        0.9716035030       -8.7007558761
 H       -10.2592006323       -0.7161861595       -8.4385810163
 H        -6.3001067453        0.8448406312       -7.9696831967
 H        -7.5707747963        2.1511394708       -8.3923679100
 H        -7.1696257579        0.9244644174       -9.5099417373
 H        -5.6181246398       -1.3268288231       -2.0136370592
 H        -4.0079442205       -1.6858018343       -2.5950868131
 H        -5.2856725178       -2.1208925052       -3.5239331752
 H        -3.9257315650        1.2994782358       -1.9377247495
 H        -5.4716920675        0.9792508180       -1.5382310971
 H        -5.0681095081        2.3007685614       -2.6420927874
 H         2.8632429699        1.9839970792       -5.6064420422
 H         1.9627643405        1.7030660907       -4.1885409719
 H         1.4829984719        3.1222469598       -5.3323918557
 H         0.3392070396        1.0763000347       -8.1212565627
 H         1.9315508081        1.2411746530       -7.9915922585
 H         0.7979016464        2.6869321391       -7.7905244703
 H        -0.5277099167       -5.2988595639       -5.2490871398
 H        -1.7374166754       -6.2553791917       -5.6926193792
 H        -2.0550108909       -4.5057432066       -5.1799305107
 H        -0.5724353343       -5.5203770590       -9.1193980841
 H        -1.6768624842       -6.7063195322       -8.2419885049
 H         0.0063741175       -6.3286677543       -7.5936974886
 H        -5.2328025096       -0.3712758625      -12.3848621270
 H        -3.6563472945       -0.2965926641      -11.7246763958
 H        -5.0613356288       -0.2219217293      -10.6137156664
 H        -6.2282431149       -2.3242076386      -12.8318377156
 H        -6.7924720585       -2.8372575520      -11.3032616016
 H        -5.7882593043       -3.9634943386      -12.2882070686
 H        -2.8590486191       -4.5050720138      -16.4159583294
 H        -1.8290510474       -5.6901096590      -15.4354385282
 H        -1.9803684170       -5.7169305128      -17.3046370001
 H         1.1155489610       -5.0771020027      -16.2699265907
 H         0.1661586242       -5.1821003852      -14.7568851800
 H         1.0141999642       -3.6731310946      -15.1456318355
 H        -2.3306893857        1.2989623820      -20.5153074880
 H        -1.1717088685        2.5921262802      -19.9437525686
 H        -1.8456021737        1.4980238940      -18.7342540845
 H         0.4166819831        2.0684146796      -21.9012125503
 H        -0.6940267347        0.8029768864      -22.4363923098
 H         0.8009946200        0.3475241610      -21.9604574218
 H         6.6662826712        3.7947984819      -18.7274541331
 H         5.7712920698        2.6480989801      -17.7152881173
 H         4.9135480788        4.1532016790      -18.3073966206
 H         4.8380607787        4.3939040761      -20.7597789603
 H         4.7173975710        2.8582257896      -21.8252878381
 H         6.3474463249        3.6814257614      -21.4292382031
 H         5.6532479420       -2.8381711118      -18.0272793697
 H         4.8627105674       -4.4756228238      -18.1510617670
 H         4.0587976286       -2.8652751685      -18.3732739519
 H         7.4203299779       -3.3223674216      -20.9941320737
 H         7.1717676521       -4.9154810296      -20.2944339363
 H         7.6492567859       -3.6536955032      -19.2341033229
 Na        2.0196088707       -2.3049499632      -19.7672949090
 Na       -4.9582605610       -2.2317440454       -6.8394430713
