232

 C         4.9391727602       -5.0387073734      -21.8763328203
 C         4.4762796613       -4.0180855024      -20.8093308660
 O         3.2813282635       -3.9212259133      -20.7134962717
 C         5.4793530739       -3.1032336488      -19.9069179525
 C         5.2652751965       -1.5579370324      -20.3421626731
 O         4.1960810998       -1.0613736303      -20.0316394085
 C         6.4079726419       -0.8049327223      -21.0005847188
 C         6.1812464277        0.7203534651      -21.0971785713
 C         6.0044756060        1.3264857715      -19.6783602243
 O         6.6022800578        0.8528072117      -18.7563674440
 C         5.0413070854        2.6435805513      -19.5673695398
 C         3.4823184584        2.1931706460      -19.6779003093
 O         3.1443418183        1.5936396573      -20.6461392334
 C         2.4408167962        2.7144391278      -18.5662526669
 C         0.9786605776        2.3957962041      -19.0584320632
 C         0.8111436981        0.8245512219      -19.2302467100
 O         1.6679900456        0.0749402532      -18.8241433471
 C        -0.3661556102        0.3616626800      -20.2325419049
 C        -0.7447949673       -1.1694088957      -20.1370813355
 O        -0.3056816169       -2.0171224823      -20.8854976462
 C        -1.8368234448       -1.5829057988      -19.1259714652
 C        -1.6731710131       -3.0874737691      -19.0303680796
 C        -0.5682676838       -3.4070125109      -18.0379203671
 O         0.6233148781       -3.2882007079      -18.3419965762
 C        -0.9327305393       -4.0669666431      -16.6706665282
 C        -1.5588744032       -2.9550907806      -15.6916344162
 O        -1.7317694287       -1.7587491866      -16.0026088947
 C        -2.1506209193       -3.4749651444      -14.4073906822
 C        -3.0585244753       -2.4403848292      -13.6432169557
 C        -3.3217152699       -2.8914093027      -12.1787049733
 O        -2.7365236114       -3.8191052629      -11.7115055477
 C        -4.4133830100       -2.2376282000      -11.2760579218
 C        -4.2991964237       -2.4823071304       -9.7341546708
 O        -4.0002252091       -1.5532613230       -9.0175523804
 C        -4.5695324374       -3.8915319103       -9.0192458063
 C        -3.2943057263       -4.7463329929       -8.8766675473
 C        -2.5759198227       -4.2762401961       -7.6020478471
 O        -3.0509896649       -3.4711610955       -6.8547669993
 C        -1.1766350421       -4.9565305649       -7.2105972142
 C        -0.2158012909       -3.7928422800       -7.4134753308
 O         0.6006466655       -3.8841531605       -8.3205606337
 C        -0.1065274339       -2.5842004146       -6.3864086040
 C         0.7067593354       -1.4062232849       -6.9155182528
 C         1.1079146921       -0.3688260704       -5.8321836524
 O         1.7117312019       -0.7548778495       -4.8453046727
 C         0.9348352872        1.1873728087       -6.1147003988
 C        -0.5948580447        1.7382471844       -5.7988843371
 O        -1.1593039273        2.4531094651       -6.5586423587
 C        -1.1189132057        1.2126651309       -4.3737305147
 C        -2.5757374789        1.3606251519       -4.0243949699
 C        -3.5551358512        0.2840648859       -4.5062778483
 O        -3.3507117933       -0.5057896256       -5.3887131231
 C        -5.0741838354        0.2657829238       -3.7074492695
 C        -6.2613636000        0.5105566932       -4.6452306864
 O        -6.5016282869       -0.1391542902       -5.6481968553
 C        -7.2051266702        1.6973975122       -4.3632581924
 C        -7.9309769660        1.9694147123       -5.7598394219
 C        -8.6137539171        0.6940212630       -6.2924100045
 O        -9.5060751860        0.1926030893       -5.6035184574
 C        -8.3008698089       -0.0318338768       -7.6667229920
 C        -7.8589585850       -1.5078467049       -7.4630239736
 O        -6.8566878787       -1.9127592482       -8.0400475703
 C        -8.5881939709       -2.5048894060       -6.5346218410
 C        -8.2208437393       -3.9479676009       -6.8182726179
 C        -7.1841747859       -4.5171560182       -5.9065402907
 O        -6.0928761587       -3.9176350167       -5.9184595988
 C        -7.3494006860       -5.7789026571       -5.0267494418
 C        -8.9392695943       -6.0291418894       -4.6432581309
 O        -9.7703823374       -6.4958666932       -5.3430341966
 C        -9.3812135521       -5.5123017341       -3.1939842283
 C       -10.8991723880       -5.2608550075       -3.0994184420
 C       -11.2391309468       -3.9730829599       -3.7151777873
 O       -10.4588118748       -3.3994496371       -4.4977469648
 C       -12.6277168376       -3.3478839083       -3.4546358404
 C       -12.3912553534       -2.7830130768       -1.9889293865
 O       -12.5227345809       -3.5981457781       -1.1039755316
 C       -12.2113473151       -1.3119584895       -1.7345516321
 C       -11.5802451539       -1.1958248153       -0.3400835016
 C       -11.4249079909        0.2902148944        0.0621612211
 O       -12.0350453218        1.1319419881       -0.5627859138
 C       -10.3548049300        0.6404081580        1.2233899782
 C       -10.0060281044        2.2566120037        1.0117223015
 O        -8.9649293694        2.5071027278        0.4504663569
 C       -11.1228873836        3.1469825347        1.1485066254
 C       -11.0208149493        0.2849516517        2.5715489701
 C        -9.0357429254       -0.2017153971        0.9051776017
 C       -12.9383997335       -2.2355000719       -4.4546109019
 C       -13.7146789584       -4.3928844357       -3.5083310727
 C        -6.8945077757       -7.0426344082       -5.8112050325
 C        -6.5356733500       -5.6686181946       -3.7019638222
 C        -9.6519208879        0.0518173373       -8.5198320586
 C        -7.2512867449        0.8180484340       -8.4097960091
 C        -5.2744112272       -1.2585206152       -3.2450464647
 C        -5.1262080985        1.0754134263       -2.4062517093
 C         1.8818128754        1.8789424171       -5.1708899564
 C         1.3805583225        1.4201463557       -7.5650132253
 C        -1.2785410201       -5.4742565518       -5.7442915665
 C        -0.7621947263       -6.1229915839       -8.1131743722
 C        -4.3946115384       -0.7042276816      -11.5559325120
 C        -5.8501028962       -2.7544041797      -11.8009819604
 C        -1.8060576848       -5.3225621187      -17.0217164178
 C         0.3427868386       -4.5644450499      -15.9351466240
 C        -1.5993822058        1.1366964654      -19.8078588306
 C         0.2046252968        0.6902001138      -21.5878787544
 C         5.2538406631        3.2933860323      -18.2378479319
 C         5.3902474801        3.6690937383      -20.7347127282
 C         5.1075290517       -3.2538108314      -18.4180389518
 C         6.9122544891       -3.5583506489      -20.2090307963
 H         4.1463724904       -5.5285917084      -22.3837460966
 H         5.6660376147       -5.7783599632      -21.4891356783
 H         5.5736778493       -4.4301059897      -22.5520071655
 H         6.7114084051       -1.2917992566      -21.9102741121
 H         7.2562156225       -1.0253135149      -20.3645924967
 H         5.3001969348        0.8647455146      -21.7976023440
 H         7.0793367830        1.1766368162      -21.5415774163
 H         2.6416972253        3.8022827799      -18.5234945729
 H         2.6581273830        2.1926359114      -17.6195813004
 H         0.8100361758        2.8353338468      -20.0224282419
 H         0.3034742773        2.7045376423      -18.2241617219
 H        -2.8184354487       -1.3988281202      -19.5383865589
 H        -1.7262289153       -1.0335037611      -18.2099059120
 H        -1.3199984360       -3.6145997201      -19.9322122591
 H        -2.6300634236       -3.4820975020      -18.7176873787
 H        -1.3612243669       -3.7856844618      -13.7102282505
 H        -2.6280271580       -4.4782738539      -14.5221599020
 H        -3.9749055222       -2.4059812516      -14.2523023701
 H        -2.4586424888       -1.5683530119      -13.6019172989
 H        -5.3013595059       -4.3519147588       -9.6316202231
 H        -5.1047949351       -3.7437274093       -8.1159604071
 H        -2.6185526221       -4.7640046897       -9.7442599252
 H        -3.5394327818       -5.7934455503       -8.6599001835
 H         0.3581241394       -2.8816821324       -5.4258728973
 H        -1.1350211642       -2.3035793839       -6.2152367303
 H         0.0444509935       -0.9499825191       -7.7440360349
 H         1.6729754087       -1.6906369645       -7.4037156573
 H        -0.4679406468        1.5520745885       -3.6034537628
 H        -0.9532927305        0.0833839470       -4.2476946709
 H        -2.9848872445        2.3336702219       -4.2441960658
 H        -2.6143739708        1.3920771230       -2.9432118930
 H        -6.6141739858        2.5576488655       -4.0259120818
 H        -7.9193119803        1.3215642753       -3.6514827766
 H        -7.2315268398        2.3817612912       -6.4719174517
 H        -8.8155048946        2.6843716275       -5.6993724529
 H        -9.5945936822       -2.3693147376       -6.9543969595
 H        -8.6948940397       -2.1825745608       -5.5140279556
 H        -7.9832275834       -4.0053193709       -7.8817003778
 H        -9.1134849855       -4.5820598791       -6.7822652072
 H        -8.7806213202       -4.6361272748       -2.9853624691
 H        -9.0875881257       -6.1984101084       -2.4198435733
 H       -11.2636623410       -5.4389965632       -2.0691131502
 H       -11.4585657999       -6.0796556913       -3.6261645674
 H       -13.2538646382       -1.0347059707       -1.7420280658
 H       -11.5649834623       -0.8360077202       -2.4702445318
 H       -10.6938232621       -1.8235267331       -0.3092088473
 H       -12.2802006405       -1.6624437013        0.3640360326
 H       -10.9440522140        4.2202814116        0.9892972782
 H       -11.5665664145        3.0820868093        2.2054074912
 H       -12.0526845367        3.0199448435        0.5206147122
 H       -10.3794612559        0.3112392283        3.4958906419
 H       -11.3367672921       -0.7689681949        2.4992727041
 H       -11.8927013031        0.9196582076        2.8461812206
 H        -9.1353399331       -1.2536454010        1.1644340772
 H        -8.2668432149        0.2284586747        1.5664697131
 H        -8.7792326196       -0.2713772332       -0.1501107385
 H       -12.8369778669       -2.5636457124       -5.4355302372
 H       -12.2203289902       -1.3984817720       -4.2518185957
 H       -13.9051381635       -1.7769622833       -4.4096289970
 H       -14.5872515815       -3.9582444000       -3.2591492499
 H       -13.5919182342       -5.2420769997       -2.8803306049
 H       -13.6145725604       -4.7229173849       -4.5022766899
 H        -7.4216089022       -7.2685984000       -6.7210883697
 H        -7.0256047233       -7.9554661346       -5.1844025975
 H        -5.7885070747       -7.0358618714       -5.9004248182
 H        -5.4714874908       -5.9478746384       -3.8377097490
 H        -6.9607637382       -6.3463237116       -3.0122610371
 H        -6.6329791031       -4.6858372412       -3.2044080904
 H        -9.5270568655       -0.7039168910       -9.2779234573
 H        -9.7297800098        0.9695444709       -8.9920133673
 H       -10.5796163812       -0.0175531414       -8.0202728050
 H        -6.4745380413        0.9814441019       -7.6819551157
 H        -7.7427486033        1.7922368191       -8.6527494357
 H        -6.8072733768        0.3379054537       -9.2633684373
 H        -6.3435379032       -1.4471135160       -3.0759558620
 H        -4.6647780444       -1.4862561829       -2.3030359944
 H        -5.0738227110       -2.1189204439       -3.9835370475
 H        -4.5640711275        0.6724504660       -1.5701059216
 H        -6.1044842967        1.0758744978       -2.0307264260
 H        -4.6892066944        2.0879056239       -2.4016619342
 H         2.8420372571        1.4762478508       -5.2302326442
 H         1.4605234158        1.8663399111       -4.1436438290
 H         2.0727693167        2.9908102017       -5.4230290313
 H         0.6802781416        1.0925865767       -8.2605875168
 H         2.2197242266        0.8079749626       -7.8610324772
 H         1.4983692846        2.5064413356       -7.7695289278
 H        -0.4901199679       -6.1287409396       -5.4978619402
 H        -2.1744527326       -6.1723117678       -5.6151985675
 H        -1.4320416787       -4.5970320900       -5.0394649069
 H        -0.7086574566       -5.8802548484       -9.1338861699
 H        -1.4898113415       -6.9350616715       -7.9093735593
 H         0.1853555222       -6.4406251655       -7.7905700059
 H        -4.3019852863       -0.4609394053      -12.5940884725
 H        -3.7029818841       -0.1378398385      -11.0643539658
 H        -5.3239319545       -0.3132700963      -11.1169787447
 H        -6.0946926675       -2.6104702267      -12.8295288684
 H        -6.6479099584       -2.1564409485      -11.2642718139
 H        -5.9509955691       -3.8163061654      -11.5719836154
 H        -2.8632496913       -5.1578310659      -17.1806049926
 H        -1.5907500113       -6.1556704630      -16.3331781583
 H        -1.4818238386       -5.7618811751      -17.9302752499
 H         0.8225357160       -5.4276061720      -16.3780580252
 H         0.1471003956       -4.6665391216      -14.8896794511
 H         1.0593828554       -3.7631337437      -16.0625730659
 H        -2.4482650031        0.7510830629      -20.2623233528
 H        -1.4459114629        2.1543577702      -19.9407840146
 H        -1.6954302747        1.0283809363      -18.6869418338
 H         0.3123741823        1.8027744417      -21.7578950862
 H        -0.3164018518        0.3346786588      -22.5124967745
 H         1.2006146220        0.2768933245      -21.6248644991
 H         5.6165444687        4.3304370851      -18.5475111598
 H         5.9836430713        2.7833690655      -17.5534286786
 H         4.3240025315        3.4756098453      -17.6967286591
 H         4.7677973472        4.5606103066      -20.7023780082
 H         5.1792108825        3.2872123854      -21.7370175088
 H         6.4088745292        3.9399291360      -20.5439035285
 H         5.4763651235       -2.5495303034      -17.7482022158
 H         5.3264612343       -4.2975069517      -18.1993084011
 H         3.9934576487       -3.0472030295      -18.3359416143
 H         7.0458773194       -3.7686165597      -21.2427111076
 H         7.1794719522       -4.5114524660      -19.8610869812
 H         7.7252964799       -2.8591915980      -19.9599366190
 Na        2.0930839298       -1.9010837531      -19.9315677297
 Na       -4.9844502554       -1.8454100771       -6.4761770907
