232

 C         5.0058799703       -4.9880432599      -21.6943395928
 C         4.4022680051       -3.8952947601      -20.7724465959
 O         3.1920266848       -3.7562575597      -20.6530677786
 C         5.4715390288       -3.1629278762      -20.0006235814
 C         5.2525352767       -1.6301128279      -20.3120528791
 O         4.1168423451       -1.2053799817      -20.0058247739
 C         6.2617725597       -0.7338267308      -21.0580025589
 C         6.1485713224        0.8073646511      -21.0470315220
 C         5.8992263357        1.4499273172      -19.6926077926
 O         6.4240615203        1.0050277019      -18.6847743116
 C         4.9567137404        2.7190241540      -19.4574919180
 C         3.5068201888        2.3249533862      -19.6945026314
 O         3.1203020901        1.7540007663      -20.6974460793
 C         2.3597009910        2.6019997929      -18.6205358211
 C         0.9445304475        2.2506255829      -19.1200473591
 C         0.8167153465        0.7215353878      -19.3619891004
 O         1.5493198729       -0.0551705073      -18.7796595394
 C        -0.3607249304        0.3522630653      -20.2182708243
 C        -0.6206387780       -1.1417581025      -20.2174187408
 O        -0.0862313732       -1.9551359474      -21.0049900727
 C        -1.8299496188       -1.6243604182      -19.2441267176
 C        -1.9253098427       -3.1592277187      -19.0228019711
 C        -0.6776764434       -3.4435699233      -18.0698111569
 O         0.4080757111       -3.0308555417      -18.3585600915
 C        -0.9401502726       -4.1611655457      -16.6526835273
 C        -1.6697031067       -3.2079853814      -15.7404167214
 O        -1.6525279376       -2.0170890822      -15.9725675552
 C        -2.3318459396       -3.6623109096      -14.3820415548
 C        -3.0196722709       -2.6133951060      -13.6346634402
 C        -3.3025553102       -2.9589314640      -12.2294184488
 O        -2.5906572888       -3.8109884966      -11.6727048692
 C        -4.4826786270       -2.1753506980      -11.2840858973
 C        -4.2502670426       -2.5010321749       -9.7600427200
 O        -3.9759317811       -1.5838239228       -8.9891963351
 C        -4.6075054597       -3.8753390744       -9.1465481394
 C        -3.2827998856       -4.6129442098       -8.8393686452
 C        -2.5671113239       -4.3125868311       -7.4785317246
 O        -3.0792209726       -3.5024604628       -6.6999762667
 C        -1.1470371100       -4.9819493060       -7.1424436569
 C         0.1122608380       -3.9054750521       -7.3747457475
 O         0.6986770934       -3.9901044754       -8.4037244243
 C         0.0203484035       -2.7096241069       -6.4556605087
 C         0.6961861663       -1.4757271341       -6.9865457951
 C         1.1901350557       -0.4645669360       -5.9333228727
 O         1.7250240090       -0.8529169388       -4.8790031676
 C         0.9662035418        1.1631901937       -6.1012926274
 C        -0.5348600048        1.6237940448       -5.8606581868
 O        -1.0850487403        2.5249350328       -6.5128091771
 C        -1.1477646736        1.1101174489       -4.5213907499
 C        -2.5996957410        1.3437885070       -3.9509922484
 C        -3.6989942909        0.3864914480       -4.4012401901
 O        -3.4164981484       -0.2352089548       -5.3997133646
 C        -5.0879172217        0.1566306085       -3.6638695994
 C        -6.2186462404        0.5700791070       -4.7072969750
 O        -6.4275775895       -0.1848897979       -5.6441041880
 C        -7.1799904314        1.8332471447       -4.4955601217
 C        -7.9623931255        2.0575349182       -5.7808330466
 C        -8.6672518268        0.6787409646       -6.1998703605
 O        -9.3520301062        0.0941741470       -5.4200316780
 C        -8.3400471731        0.0141741816       -7.6063566997
 C        -7.8716180726       -1.5893672471       -7.4280998942
 O        -6.9134566844       -1.9795899612       -8.0187349762
 C        -8.7581038002       -2.6060048622       -6.7002243096
 C        -8.2639511453       -4.0389197488       -6.9291989246
 C        -7.0638657839       -4.4852669113       -5.9901457282
 O        -5.9228057105       -4.0018157002       -5.9875984154
 C        -7.4035302868       -5.7955426851       -4.9991952684
 C        -8.9627156848       -5.8800537817       -4.5408353500
 O        -9.6909554287       -6.4268902197       -5.3509289012
 C        -9.3926276785       -5.5276042894       -3.1288135692
 C       -10.8972297382       -5.1775293070       -3.0524544938
 C       -11.2029000250       -3.8917092713       -3.8280105291
 O       -10.3539894781       -3.2688008665       -4.4710172827
 C       -12.6293891668       -3.3020907663       -3.5260238901
 C       -12.5717332415       -2.8077737387       -1.9835024796
 O       -12.5192346602       -3.6621384986       -1.1094900172
 C       -12.1542662169       -1.3799947176       -1.6835562406
 C       -11.4786076549       -1.2174784488       -0.3146789840
 C       -11.3859239095        0.2450469015       -0.0406738605
 O       -12.0820590068        1.0106234193       -0.6316350181
 C       -10.3606714771        0.6897927174        1.0622438788
 C        -9.9372849742        2.2172642590        0.9045297477
 O        -8.8449131214        2.5987459297        0.5419447501
 C       -11.1856113557        3.1295045187        1.1255659957
 C       -10.8393309645        0.2646900507        2.4496853263
 C        -9.0764121727       -0.2132264475        0.9607981084
 C       -13.0084687087       -2.1669012803       -4.5459631527
 C       -13.7124216908       -4.4151831449       -3.4142265363
 C        -6.9847237869       -7.0440793963       -5.7706262463
 C        -6.5577892464       -5.5743325266       -3.7559109348
 C        -9.6658788773       -0.0927927711       -8.4622840688
 C        -7.2909859370        0.8448230082       -8.4229678516
 C        -5.2772508779       -1.3217344091       -3.3015908644
 C        -5.1679818817        1.0599120146       -2.5137025320
 C         1.8646924492        1.8954401471       -5.0529996281
 C         1.3086420192        1.5662643220       -7.5802753243
 C        -1.2538996764       -5.4729508956       -5.6850741752
 C        -0.8023826245       -6.1290432207       -8.1539746255
 C        -4.3385857202       -0.6264679654      -11.4586618771
 C        -5.8693006438       -2.6485800311      -11.6668947429
 C        -1.7837548169       -5.3698484820      -16.8388328088
 C         0.4278168451       -4.5097595443      -16.0671431803
 C        -1.6463253966        1.1515052809      -19.8273457762
 C         0.2100924981        0.7341719311      -21.7431343164
 C         5.2706382047        3.3271256312      -17.9885283161
 C         5.3424699621        3.6711489556      -20.6243686921
 C         5.1658583132       -3.2746472801      -18.4985933340
 C         6.9624699647       -3.5564405642      -20.1453885288
 H         4.4343008515       -5.8826281218      -21.9116826085
 H         5.9215176732       -5.2767084272      -21.3076680229
 H         5.3368559055       -4.4759182566      -22.5730113675
 H         6.2399935344       -1.0521010190      -22.0598992943
 H         7.2388735777       -1.0810192201      -20.7317231304
 H         5.2940186656        1.0264430442      -21.8132555775
 H         7.1018948084        1.1306612821      -21.4670455974
 H         2.3967512199        3.6812160294      -18.5332053951
 H         2.6206604845        2.1286422521      -17.6603157748
 H         0.7354225719        2.8096159308      -20.0663673587
 H         0.2789220450        2.4666211620      -18.2655207901
 H        -2.7437588060       -1.3495072760      -19.7006901899
 H        -1.7763287338       -1.0484145772      -18.3011370969
 H        -1.8310783959       -3.7845155283      -19.8550816065
 H        -2.9481813529       -3.3324614463      -18.5399390492
 H        -1.5733868474       -4.1387216906      -13.7089331742
 H        -3.0630355348       -4.5793948243      -14.3327601892
 H        -3.8745528425       -2.4464194677      -14.2140268237
 H        -2.3402385515       -1.7844618606      -13.4552264004
 H        -5.2996761115       -4.3966470688       -9.7948894516
 H        -5.2087787772       -3.7136872126       -8.2501541160
 H        -2.4883513036       -4.5571773106       -9.5686272799
 H        -3.5565862142       -5.6903797406       -8.7385816027
 H         0.3673718417       -2.9267185870       -5.4866783401
 H        -1.1114776805       -2.5933356326       -6.3976823743
 H         0.0892071199       -1.0627748529       -7.8141958245
 H         1.6639634781       -1.7769247032       -7.4588428719
 H        -0.3872566104        1.5124068506       -3.7617850613
 H        -0.9436825464        0.0324112180       -4.3435894046
 H        -2.9180184110        2.3106289758       -4.1658708302
 H        -2.4779232559        1.3818494095       -2.8291781852
 H        -6.6672906554        2.6764172778       -4.1878819738
 H        -7.8880725818        1.4283511365       -3.7495010563
 H        -7.2084249684        2.3536396608       -6.5767151197
 H        -8.7240483747        2.8088936683       -5.7034821829
 H        -9.8575109735       -2.3580016703       -6.7813511683
 H        -8.5104716759       -2.3121027017       -5.6864437925
 H        -8.0810765081       -4.1799265736       -7.9593291696
 H        -9.0159182476       -4.7385304297       -6.7627948160
 H        -8.7154774675       -4.7259414320       -2.8303765312
 H        -9.1841903750       -6.3873337784       -2.5270368041
 H       -11.2302902507       -5.1560074874       -1.9898812518
 H       -11.4371194498       -6.0872231335       -3.3829407451
 H       -13.0032055906       -0.7527180237       -1.7095011028
 H       -11.4017022773       -1.1508447577       -2.3772414820
 H       -10.5194489488       -1.7139278196       -0.3327416129
 H       -12.0709240161       -1.7130585237        0.4904269107
 H       -10.7837750485        4.1899887564        1.1625170197
 H       -11.7120548220        3.0449940369        2.0971347278
 H       -12.0410762563        3.2980336273        0.3900201257
 H       -10.0119919482        0.3117282087        3.2415692743
 H       -11.0163290765       -0.8725462206        2.3686322470
 H       -11.6840346674        0.7831177429        2.9387225105
 H        -9.2093455488       -1.2443389975        1.3607609318
 H        -8.3848285409        0.2459322541        1.5741730473
 H        -8.6733183173       -0.3899672349       -0.0563202453
 H       -12.9618509183       -2.4857769426       -5.5938964617
 H       -12.3792566745       -1.3292172514       -4.4999963989
 H       -14.0250579581       -1.7703163941       -4.4049244132
 H       -14.6468659671       -3.8208837883       -3.4878045650
 H       -13.7629628487       -5.1006311267       -2.5348217329
 H       -13.4794421277       -5.0380075512       -4.3073614561
 H        -7.6879039109       -7.3441513314       -6.4988733526
 H        -6.7277744512       -7.9666827224       -5.2110012186
 H        -5.9727505100       -6.7816919189       -6.2067202431
 H        -5.5437241276       -5.7718829190       -3.9683273514
 H        -6.8956645597       -6.2298635608       -2.9646548928
 H        -6.7211686190       -4.5799813380       -3.3192699845
 H        -9.6071168409       -0.9268521908       -9.1311537084
 H        -9.8471577991        0.8109076500       -8.9842392710
 H       -10.5997040764       -0.1466520403       -7.8287008249
 H        -6.3378310970        0.7156077817       -8.0219346664
 H        -7.6065637788        1.9365343743       -8.3635122217
 H        -7.3010974908        0.4529452113       -9.4454797902
 H        -6.3356809270       -1.6717816889       -3.3794613035
 H        -4.8373958296       -1.5660395341       -2.3073036558
 H        -4.8256750033       -2.0952436560       -4.0677249248
 H        -4.4149327306        0.9757670067       -1.7502750302
 H        -6.1122254795        0.9408088537       -2.0161336634
 H        -5.0631147772        2.0515774090       -2.7829910924
 H         2.9841359651        1.7498025555       -5.3060271614
 H         1.5433090541        1.8117155048       -3.9473257243
 H         1.8072350669        2.9929406420       -5.2841268802
 H         0.5987271209        1.2140115943       -8.3037975815
 H         2.1774872677        1.0796729180       -7.9081499928
 H         1.3916048507        2.6715242316       -7.6939469053
 H        -0.2649047190       -5.9279398113       -5.3735400524
 H        -1.9698420279       -6.3094720049       -5.5517421631
 H        -1.6061079878       -4.6845897075       -5.0492602891
 H        -0.9345193789       -5.7881993504       -9.2057163116
 H        -1.4077816088       -7.0444947206       -7.9309320970
 H         0.3272935837       -6.3586353635       -8.0383684119
 H        -4.0615371638       -0.2866817123      -12.4001899088
 H        -3.5445327306       -0.3091843791      -10.8094353222
 H        -5.1368648750       -0.0810366862      -10.9706095240
 H        -6.1735145123       -2.2610452475      -12.6538636850
 H        -6.6619836303       -2.2043726241      -10.9775210961
 H        -5.9338859035       -3.7686563103      -11.7498264792
 H        -2.6497104576       -5.1033941730      -17.4257050813
 H        -2.1046852810       -5.8594446519      -15.8654206472
 H        -1.3261423404       -6.2661144065      -17.3568796062
 H         0.9622681107       -5.0660127203      -16.7903308798
 H         0.3613137649       -4.9699940981      -15.1203414467
 H         0.9947755635       -3.6041920403      -16.0341504896
 H        -2.2689187068        0.7509959050      -20.6168265130
 H        -1.4619242158        2.2445827207      -19.8476698361
 H        -2.0458504822        0.9365603962      -18.8823759918
 H         0.4945196652        1.8286794735      -22.0053619101
 H        -0.4830566747        0.4529782645      -22.5257707438
 H         1.0676294415        0.1540632777      -21.8958534417
 H         5.6410230548        4.4228263664      -18.2396731848
 H         6.1067797886        2.7436017059      -17.4837610737
 H         4.4192290100        3.3800223616      -17.2905462367
 H         4.8826101568        4.6496248624      -20.4085443436
 H         4.7400219178        3.4325167859      -21.5853069524
 H         6.4173844339        3.7696081185      -20.6971767506
 H         5.7682858070       -2.5537967225      -17.9727537496
 H         5.4027278890       -4.2697679952      -18.1408539616
 H         4.1813480325       -2.9161653067      -18.2689572633
 H         7.3877588007       -3.6284593729      -21.1409779492
 H         7.0980205924       -4.6038224043      -19.9463635753
 H         7.6646398137       -2.9451733882      -19.5833073546
 Na        1.9774687593       -1.7826655166      -19.8755426429
 Na       -4.7632638794       -1.7204801475       -6.4508672153
