232

 C         4.8907565679       -5.0790938309      -21.4159259342
 C         4.3737463981       -3.8628224583      -20.7482317476
 O         3.2049338158       -3.5468599954      -20.6800304385
 C         5.4993768534       -2.9232173878      -19.9485721749
 C         5.1366589671       -1.4466905943      -20.2325772328
 O         3.9670000427       -1.0650329246      -19.9556695531
 C         6.1471663052       -0.5148728859      -20.8126796007
 C         5.6819221788        0.9463805311      -20.9321774162
 C         5.6092383516        1.5145411001      -19.5669720172
 O         6.0125020174        0.8348797503      -18.6328246224
 C         4.8728545905        2.8718950249      -19.2382848041
 C         3.3497356943        2.6460818022      -19.6280091046
 O         2.9912706364        2.3991152459      -20.7464943718
 C         2.3280364269        2.4152017637      -18.4136674136
 C         0.8400646777        2.3239395866      -19.1031228162
 C         0.5542950583        0.8020702035      -19.4910435871
 O         0.9757300798       -0.0899749503      -18.7715858641
 C        -0.5008894328        0.3718035742      -20.5455086989
 C        -0.8290311084       -1.1300035057      -20.4640713650
 O        -0.0750639780       -1.9612802245      -20.9232820774
 C        -2.1180045272       -1.7297298448      -19.7665004192
 C        -1.9826594753       -3.0891233232      -19.0086208958
 C        -0.9013563788       -3.3118004290      -17.9129564665
 O         0.2103646192       -2.9144900759      -18.1059884706
 C        -1.0458669579       -4.4095304284      -16.7078382605
 C        -1.9389789396       -3.4672958027      -15.6565767003
 O        -1.7129721532       -2.2704533479      -15.7355378078
 C        -2.7534226526       -3.9850187343      -14.4060550580
 C        -3.1792625505       -2.7757327368      -13.5596236938
 C        -3.1952678130       -3.0157733134      -12.1280641976
 O        -2.4745176554       -3.8036459415      -11.5074455968
 C        -4.2186047091       -2.0623930505      -11.2823501371
 C        -4.1307235889       -2.3980842297       -9.7128842493
 O        -3.8953444378       -1.4670869166       -8.9440910739
 C        -4.4142500131       -3.8351837396       -9.0978405165
 C        -3.1088264858       -4.6140057458       -8.7067176939
 C        -2.4005892529       -4.2756725295       -7.3408530347
 O        -2.9219433109       -3.5006964368       -6.5762662224
 C        -1.0527873348       -5.0244984112       -7.0216119456
 C         0.1847182053       -3.9627487545       -7.5171124534
 O         0.9008438521       -4.2489177368       -8.4341947625
 C         0.2063083125       -2.7901034505       -6.6038750141
 C         0.5659704950       -1.4011596273       -7.0930959820
 C         1.0873798574       -0.4757407597       -6.0318949108
 O         1.5276246221       -0.9931228693       -4.9840448068
 C         0.9187462266        1.1047919980       -6.0748414164
 C        -0.5732984219        1.3773023511       -5.6010041614
 O        -1.2557752885        2.2413996566       -6.1561708053
 C        -1.1048347674        0.6963518037       -4.3282865402
 C        -2.4441871358        1.3650987626       -3.9816209943
 C        -3.5875658541        0.6059373422       -4.5866346666
 O        -3.4823527366        0.0990139159       -5.6886166359
 C        -4.8760183483        0.3183713200       -3.6943915534
 C        -5.9885787123        0.6139117748       -4.8188825919
 O        -6.1227208953       -0.1255438847       -5.7743452479
 C        -6.8535168187        1.8783560341       -4.8063050878
 C        -7.9896466227        1.7423340390       -5.9471657437
 C        -8.4910058076        0.3441426303       -6.1246097339
 O        -9.0332477715       -0.3628069378       -5.3186251301
 C        -8.4964360154       -0.1951524618       -7.6507054593
 C        -7.9120732026       -1.6695804143       -7.5922194064
 O        -6.7558002209       -1.9205327864       -7.9156561200
 C        -8.8039097425       -2.7869100023       -6.9255457777
 C        -8.2133336120       -4.2137274214       -7.1133165674
 C        -7.0372446183       -4.5461282882       -6.1295490508
 O        -6.0376060520       -3.7798916876       -6.0686751816
 C        -7.2646590584       -5.5883944081       -5.0424170646
 C        -8.8065880104       -5.6340271363       -4.5532372315
 O        -9.6778421413       -5.8774801273       -5.3238498853
 C        -9.3194409674       -5.3655040719       -3.1582811467
 C       -10.8594346420       -5.2207236309       -3.1621740758
 C       -11.2775032717       -3.9376855439       -3.7542672195
 O       -10.3972852118       -3.1655994273       -4.1458184091
 C       -12.8519973166       -3.4036420001       -3.5325172529
 C       -12.6289742114       -2.8917261953       -1.9895325366
 O       -12.8375863791       -3.7096403537       -1.0988312858
 C       -12.0579984780       -1.5373627047       -1.8167591764
 C       -11.3349361926       -1.2474315135       -0.4404823431
 C       -11.2314806277        0.2905355942       -0.0800489797
 O       -12.0229336412        1.0373306325       -0.5526544212
 C       -10.1363517361        0.7418031329        0.9585958578
 C        -9.7620982686        2.2665116744        0.8993254505
 O        -8.6528282576        2.7300608925        0.7863241678
 C       -10.9814639896        3.2343700521        0.8970300708
 C       -10.6791412900        0.3299950679        2.4019821292
 C        -8.8068436425       -0.0019790700        0.7204644284
 C       -13.1434558507       -2.2147275847       -4.5198189759
 C       -13.7284034625       -4.6980113641       -3.7743935971
 C        -6.9217892380       -6.9148061291       -5.7178757457
 C        -6.3404758241       -5.3988895950       -3.8439188965
 C        -9.9879513323       -0.1396618392       -7.9866961337
 C        -7.6490101693        0.7583783266       -8.7253935243
 C        -4.7922671403       -1.1491615477       -3.2890754914
 C        -5.1246606896        1.2073654349       -2.4508600821
 C         1.9194784749        1.7385309372       -4.9667074512
 C         1.1179219376        1.6375270572       -7.5099953263
 C        -0.7593478039       -5.4522344415       -5.5053215445
 C        -0.9083093910       -6.2330573539       -7.9858302805
 C        -3.8571244672       -0.5868049431      -11.4008674803
 C        -5.6467058353       -2.4242284376      -11.6842833474
 C        -1.5607646640       -5.7503578909      -17.0884314718
 C         0.3663187880       -4.6140517197      -16.0532219528
 C        -1.7668365017        1.2063017045      -20.2836427635
 C         0.1076933060        0.7208233383      -21.9412315065
 C         5.1159587619        3.4388883318      -17.7669827422
 C         5.4459978523        3.9014565001      -20.3161045349
 C         5.1581546556       -3.1318622997      -18.4347498723
 C         6.9472377804       -3.1926293928      -20.2183041004
 H         4.1982157429       -5.9218344641      -21.2288371591
 H         5.9066823125       -5.4065275818      -21.1433534133
 H         5.0078455985       -4.8230578706      -22.5169169031
 H         6.4540244758       -0.9568361823      -21.7898664662
 H         7.0504863222       -0.5697775414      -20.1620990555
 H         4.6091294896        0.9133306889      -21.3099325043
 H         6.3238527668        1.3961149268      -21.6189733307
 H         2.4182197757        3.3199401388      -17.7721076008
 H         2.6377359449        1.5475829336      -17.7932782437
 H         0.7888314361        3.0069887958      -19.9200919154
 H         0.0992459214        2.5807965679      -18.3088253361
 H        -2.8218623606       -1.8901689602      -20.5952390444
 H        -2.5695192008       -0.8747817403      -19.2434165786
 H        -1.7658210019       -3.8509093082      -19.7648536061
 H        -2.9232271876       -3.4173212050      -18.5348672384
 H        -2.1858576834       -4.6328887011      -13.8297251526
 H        -3.5778296896       -4.6641488344      -14.6254345808
 H        -4.2808250356       -2.6372368924      -13.7659020726
 H        -2.5444710395       -1.9228286713      -13.8747973230
 H        -4.9222675263       -4.4726745871       -9.8134043909
 H        -5.1582966979       -3.6722285101       -8.3288027378
 H        -2.3699667392       -4.7031991844       -9.5060680229
 H        -3.5592875818       -5.5939888723       -8.5261881694
 H         1.0114683327       -3.0765700114       -5.8895624466
 H        -0.6931968375       -2.8554070122       -5.9845409676
 H        -0.1506281650       -0.9342599539       -7.8337033797
 H         1.4398458120       -1.6432315913       -7.7060372008
 H        -0.4027676136        0.5661301279       -3.5582730465
 H        -1.2307540239       -0.3625657952       -4.6672890889
 H        -2.3636677291        2.3953607017       -4.3683419910
 H        -2.5817997080        1.4226787634       -2.8672406445
 H        -6.2899589657        2.8555044865       -4.8269810413
 H        -7.4339263796        1.8313274509       -3.8494881806
 H        -7.6945220868        2.0790461383       -6.9304444558
 H        -8.8174200295        2.3307656351       -5.5340741020
 H        -9.8345758850       -2.7471724815       -7.2708591436
 H        -8.8844702287       -2.5551336040       -5.8835359304
 H        -7.8719439854       -4.4118028557       -8.2027022662
 H        -9.1378725565       -4.8477779476       -7.0410615822
 H        -8.9612228095       -4.3777149605       -2.8111952960
 H        -8.9481749503       -6.2336091064       -2.5994008410
 H       -11.2103765937       -5.3379644716       -2.1221641906
 H       -11.2751959094       -6.0729900779       -3.7505889603
 H       -12.8557998170       -0.7425228642       -1.8977282507
 H       -11.2555979442       -1.5055686336       -2.6116914476
 H       -10.3743362709       -1.7415648260       -0.4309758735
 H       -11.9563316355       -1.7080018379        0.3483731238
 H       -10.8629656909        4.1706048094        1.4629062431
 H       -11.8035375395        2.8112148827        1.4738429253
 H       -11.3721423207        3.6105745267       -0.0370078069
 H       -10.2842655818        0.9405025369        3.1730449185
 H       -10.4192776181       -0.6539678267        2.7114239565
 H       -11.7145137658        0.3786485009        2.4516176394
 H        -8.8144868276       -1.1141496123        0.7951156073
 H        -8.0779009062        0.3549540700        1.4329586350
 H        -8.3659922227        0.3654089313       -0.2390097805
 H       -13.4729181951       -2.3706816643       -5.5170724035
 H       -12.1639251916       -1.7710309943       -4.7538554211
 H       -13.8394412560       -1.4474252085       -4.0808949771
 H       -14.7046993708       -4.3302348036       -3.7554818173
 H       -13.5890931064       -5.4597325713       -3.0717987638
 H       -13.5567249712       -5.0717766359       -4.7659186314
 H        -7.5228420309       -7.0996104804       -6.5421709094
 H        -7.0250620380       -7.7712837980       -5.0292809315
 H        -5.8782884006       -6.8735910859       -6.1216696597
 H        -5.3293392503       -5.1071340678       -4.1648328058
 H        -6.2912834091       -6.2731112220       -3.2355596085
 H        -6.8192675611       -4.6078713718       -3.2013425763
 H       -10.1285323385       -0.4813165525       -9.0176713524
 H       -10.3706863179        0.8293541965       -7.8355973682
 H       -10.6165105061       -0.8493135203       -7.3969912835
 H        -6.8022327318        1.2216599389       -8.3272558286
 H        -8.3918672154        1.5698304976       -8.9585766593
 H        -7.3667277586        0.1257968929       -9.5404908831
 H        -5.5937939732       -1.4650157972       -2.6766150578
 H        -3.9215656178       -1.2987254615       -2.7041594057
 H        -4.9161305590       -1.7880511510       -4.2225288508
 H        -4.3415522123        1.0221587597       -1.6224029613
 H        -6.1244812033        1.1773983979       -2.0037273433
 H        -5.0464731951        2.2801054674       -2.7157117218
 H         2.7987666009        1.9079598467       -5.5334505362
 H         2.0888280512        1.0520904744       -4.2088652648
 H         1.6539782012        2.6427647181       -4.5301737369
 H         0.6354775935        0.9666747014       -8.1824344732
 H         2.1790001561        1.7464388858       -7.8119452925
 H         0.6454382169        2.6852607459       -7.6707956912
 H         0.2980810608       -5.5810749723       -5.4069676049
 H        -1.4630796268       -6.2225377002       -5.1383756469
 H        -1.0707586119       -4.6372625801       -4.8514458927
 H        -0.7258723736       -5.8694211379       -8.9166804961
 H        -1.7910074087       -6.7951451240       -7.9706831549
 H        -0.0972955059       -6.8440115420       -7.7156357364
 H        -4.1167970293       -0.2551078771      -12.4094460492
 H        -2.8031842567       -0.4035159899      -11.4182145007
 H        -4.2089198911        0.0755988707      -10.5320104887
 H        -5.8832202487       -1.9807499017      -12.5775839127
 H        -6.3826755868       -2.1189873067      -10.9211825168
 H        -5.7680484895       -3.4443565079      -11.9034283517
 H        -2.4751933509       -5.7938738585      -17.5516964027
 H        -1.6904762109       -6.4188038566      -16.2144393718
 H        -0.8770549461       -6.2328228780      -17.7363750181
 H         1.1049135414       -5.0246452538      -16.7982717604
 H         0.2843474538       -5.2946240744      -15.1876683938
 H         0.7370621808       -3.5923115935      -15.7750781945
 H        -2.5256312900        0.7421532647      -20.8888950989
 H        -1.5263868447        2.1573869759      -20.7340125339
 H        -2.0578814424        1.3499720798      -19.2116795031
 H         0.7359118211        1.7091287391      -22.0586338979
 H        -0.6175309682        0.7429000212      -22.7758024390
 H         0.8059992205       -0.0169122186      -22.0997645850
 H         4.5046414071        4.3939887829      -17.6871218921
 H         6.1171993875        3.6411258907      -17.4924942602
 H         4.8451484953        2.7626069388      -17.0506836710
 H         4.9311795364        4.8045638370      -20.4820253958
 H         5.3703017679        3.2947286018      -21.2524607516
 H         6.4563517583        4.0277352598      -20.1750383671
 H         5.9069551847       -2.7079352237      -17.8187647127
 H         5.3412944421       -4.1880143985      -18.1491570743
 H         4.1469577571       -2.6661965811      -18.1449148634
 H         7.2433317632       -3.1048264595      -21.2393762907
 H         7.4096336600       -4.1023389331      -19.9885555806
 H         7.5064788068       -2.3636684092      -19.7552038114
 Na        1.9393145797       -2.2851471105      -19.5650875553
 Na       -4.6746229644       -2.0687529124       -6.8514457844
