232

 C         5.0774078948       -5.0483543472      -21.3040280898
 C         4.4077292896       -3.8376787492      -20.7126675445
 O         3.2115125487       -3.7189321648      -20.7802851975
 C         5.3953237870       -2.8551655706      -19.9683787060
 C         4.9908784400       -1.4013313329      -20.2535620738
 O         3.8564511622       -1.0218976161      -19.8894586311
 C         6.0874208896       -0.4907478619      -20.8125143963
 C         5.6599381790        0.9954600146      -20.9235134408
 C         5.3586598949        1.5046225281      -19.4579634563
 O         5.8679778690        0.9251948053      -18.5191867708
 C         4.7422322225        2.9279961731      -19.2531103990
 C         3.2737149941        2.7641774987      -19.5568370877
 O         2.9656024325        2.6809711086      -20.7295046882
 C         2.2007176777        2.3360550118      -18.4905461972
 C         0.7813966236        2.2051237711      -19.1727220759
 C         0.4456190989        0.6974555991      -19.3723652233
 O         1.0580235176       -0.1655184906      -18.8044031919
 C        -0.6219566077        0.3751346739      -20.5843055517
 C        -0.9105880090       -1.1758597601      -20.4626503102
 O        -0.0601921949       -1.9542104488      -20.8607063502
 C        -2.1589462944       -1.7469007886      -19.6231832748
 C        -1.9266339980       -3.1452137365      -19.0679762336
 C        -0.7324029679       -3.3484634962      -18.0020152061
 O         0.3372984224       -2.8576369295      -18.1031086413
 C        -1.0831773180       -4.2907769122      -16.7301025162
 C        -1.8749570003       -3.5136127051      -15.6784740467
 O        -1.8419617816       -2.3188822132      -15.6709761197
 C        -2.6811739160       -4.0843041254      -14.4512662312
 C        -3.2908482639       -2.9093832438      -13.6542135313
 C        -3.1814506401       -3.0522450643      -12.1187953285
 O        -2.3978845346       -3.8255654555      -11.6426984499
 C        -4.1496437267       -2.1166660507      -11.2212218850
 C        -3.9604787184       -2.3564191176       -9.6514756495
 O        -3.7963769545       -1.3763819636       -8.9409035713
 C        -4.3103720146       -3.7490814727       -9.0396082509
 C        -3.0787784400       -4.6584867507       -8.6762050538
 C        -2.3725563337       -4.3569832043       -7.3431944874
 O        -2.7317190163       -3.4884554118       -6.5317913984
 C        -0.9710908836       -5.0352411603       -7.0960969012
 C         0.1259834835       -4.0240670485       -7.5045721198
 O         0.8326442205       -4.2014919692       -8.4336424604
 C         0.2702356513       -2.7653350905       -6.6138253480
 C         0.5643801619       -1.3698801420       -7.1624362364
 C         1.0311281634       -0.5693191449       -5.9630711314
 O         1.4922987402       -1.0288382549       -4.9447366972
 C         0.8563307004        0.9788775183       -6.0648911170
 C        -0.5088731338        1.4224113331       -5.5561271465
 O        -1.1819905358        2.1724780829       -6.2505999407
 C        -1.0036192045        0.7741963313       -4.2595930502
 C        -2.4079421280        1.1408670024       -3.7524678971
 C        -3.5377565601        0.5024304925       -4.6138101354
 O        -3.3856205731        0.0853816586       -5.7491650213
 C        -4.8960174377        0.3689143397       -3.8353160401
 C        -6.0751801218        0.5453789080       -4.8285969121
 O        -6.0519982376       -0.2030493531       -5.8157351012
 C        -6.9321648226        1.7545030491       -4.7604243943
 C        -7.9826836376        1.7351837404       -5.8796380158
 C        -8.3663473686        0.2650421500       -6.1984536604
 O        -8.8290054528       -0.3802512447       -5.3125998716
 C        -8.5752450866       -0.2392038812       -7.7412199699
 C        -7.9755628067       -1.6936939953       -7.6257548097
 O        -6.8623898444       -1.9090574623       -8.0101361270
 C        -8.8374402875       -2.8797425066       -7.0752914859
 C        -8.0611107201       -4.2263370853       -7.2414435020
 C        -7.1126395450       -4.4108268111       -6.0490594312
 O        -6.0909564828       -3.7666984889       -5.9841735441
 C        -7.3288998582       -5.5342750736       -4.9955192892
 C        -8.8264163604       -5.5678029810       -4.6211767743
 O        -9.6121984179       -5.8227507943       -5.5377819109
 C        -9.2386286638       -5.3104434600       -3.1328449129
 C       -10.7749129162       -5.2688435332       -3.0786005665
 C       -11.2563880138       -3.9021786128       -3.6639661383
 O       -10.4436690458       -3.1345035000       -4.1247783379
 C       -12.7015085058       -3.4200569484       -3.4976792906
 C       -12.6810870491       -2.9427550857       -1.9970812599
 O       -12.9946413778       -3.6802723164       -1.1058433026
 C       -12.0252068782       -1.4972048354       -1.7862464522
 C       -11.3180121137       -1.2186481812       -0.4351862884
 C       -11.2504460072        0.2639644840       -0.1635128839
 O       -12.0153507087        1.1059529447       -0.5941937060
 C       -10.0694880321        0.7509970997        0.8772036727
 C        -9.7958658536        2.2842082838        0.9070428212
 O        -8.6671996027        2.7123906515        0.8084886993
 C       -10.9894880051        3.2913840087        0.8097074182
 C       -10.5233131059        0.3042265760        2.3046037465
 C        -8.6921032166       -0.0789745153        0.7539057172
 C       -13.1281109007       -2.3094992410       -4.5072841123
 C       -13.6800877097       -4.5969604117       -3.7080266608
 C        -6.9134026224       -6.9523871922       -5.7232564165
 C        -6.2955065885       -5.3333510455       -3.8205390222
 C       -10.0619477909       -0.1435302393       -7.9483987029
 C        -7.8637393947        0.6473658369       -8.7232405689
 C        -4.6834421426       -1.1367986344       -3.3455500752
 C        -4.9614466989        1.3375564263       -2.6551696171
 C         1.8876655919        1.6780366139       -5.0885493607
 C         1.0713395608        1.6459735445       -7.4195627404
 C        -0.8217045362       -5.3565078300       -5.5963356435
 C        -0.7126490183       -6.3936297013       -7.8596755097
 C        -3.7459248465       -0.6469352281      -11.4677087266
 C        -5.5880768232       -2.3309371186      -11.6719280197
 C        -1.7975174575       -5.5969214447      -17.2754664773
 C         0.1909993933       -4.4853890329      -15.8766372478
 C        -1.9809451010        1.2655875274      -20.3891074052
 C         0.1671207977        0.6262611113      -21.9364298051
 C         5.0541986617        3.3609313442      -17.8360128001
 C         5.4498190353        3.9177849336      -20.2010916974
 C         5.1831062661       -3.1185948947      -18.4437172063
 C         6.8613534711       -3.2034313375      -20.3016113477
 H         4.3262608004       -5.8864441666      -21.2244398347
 H         6.0001230424       -5.4595201742      -20.9407606603
 H         5.2791504417       -4.7863334392      -22.3511516839
 H         6.5608237421       -0.9329687352      -21.6458300228
 H         6.8361930751       -0.4719122741      -19.9974943229
 H         4.8806327331        1.1614323477      -21.7378732458
 H         6.6177466358        1.4876222108      -21.1926430428
 H         2.2180982641        3.1706884651      -17.7824503153
 H         2.4828594389        1.4329107798      -17.9010649148
 H         0.7279970278        2.7474279902      -20.1515190837
 H         0.0620909237        2.6607383484      -18.4829568587
 H        -2.9661610913       -1.7387099095      -20.2996437760
 H        -2.4207784722       -0.9404387029      -18.9255149021
 H        -1.8469025393       -3.8275513439      -19.8578109467
 H        -2.8045329978       -3.4938444122      -18.4286932390
 H        -2.1954086774       -4.7677341041      -13.7188068383
 H        -3.4299912696       -4.8198345090      -14.8895859945
 H        -4.2223313101       -2.6036736704      -14.0247079286
 H        -2.4960437618       -2.1880436206      -13.9386099762
 H        -4.8836757615       -4.2990181712       -9.7417130674
 H        -4.9984729078       -3.4872768316       -8.2738231916
 H        -2.2998337582       -4.6695418557       -9.4255835310
 H        -3.5561444886       -5.6538261871       -8.5936769268
 H         0.8813972716       -2.9505566225       -5.7699257611
 H        -0.7591218871       -2.6887033422       -6.1108029334
 H        -0.3422999693       -0.8673466981       -7.6075310598
 H         1.2864465695       -1.4355847113       -8.0452089831
 H        -0.2184720558        0.9138255507       -3.4255112088
 H        -0.8900474872       -0.2929923833       -4.4139339830
 H        -2.5003193363        2.1795607466       -3.8061862814
 H        -2.4521598782        0.8243570713       -2.6748563383
 H        -6.2520834212        2.5489491145       -4.9975750714
 H        -7.2892533548        2.0220179847       -3.7392175929
 H        -7.5208548568        2.2599774956       -6.7830044195
 H        -8.8427347045        2.2526820218       -5.5237179825
 H        -9.8735598711       -2.9119454988       -7.4767061383
 H        -8.9791886592       -2.7193087725       -6.0257190787
 H        -7.4168497055       -4.3023980879       -8.1501736197
 H        -8.8607308732       -4.9437173261       -7.3720145393
 H        -8.9011785576       -4.3381204039       -2.8141491326
 H        -8.7973342884       -6.1463107707       -2.6980304593
 H       -11.1284882310       -5.5607318717       -2.0566876194
 H       -11.0650487946       -6.0787964515       -3.7895125663
 H       -12.8726084399       -0.7952562714       -1.7713753682
 H       -11.3042527242       -1.2523515409       -2.5555619526
 H       -10.3021370059       -1.5752750287       -0.4972221646
 H       -11.8171116524       -1.6866159341        0.4430076024
 H       -10.6951155427        4.2337866059        1.4308427194
 H       -11.8899038641        3.0329334681        1.3775101495
 H       -11.2584103839        3.7634415344       -0.1833936994
 H       -10.0110093155        0.8534659575        3.0832450717
 H       -10.1920142662       -0.7489048751        2.5184767742
 H       -11.5731777316        0.2368327363        2.5308765592
 H        -8.8638910986       -1.1735679302        0.9113218823
 H        -7.9833387828        0.2369729672        1.4758481371
 H        -8.1271578077        0.1388366978       -0.1699701104
 H       -13.5399963133       -2.6802798047       -5.4526080618
 H       -12.3857733503       -1.7425227854       -4.9059792510
 H       -13.9243002513       -1.7420046043       -4.0464078948
 H       -14.6703692902       -4.1787236182       -3.4884766919
 H       -13.4389889044       -5.3931497562       -3.1026177410
 H       -13.8088041618       -4.8663890869       -4.7269285663
 H        -7.2428788202       -7.0410026147       -6.7653384744
 H        -7.2095864446       -7.8563229889       -5.1726748879
 H        -5.8008189708       -6.9134239784       -5.8619577177
 H        -5.2767708239       -5.2291785179       -4.1340393460
 H        -6.4335634456       -6.2055814663       -3.1363634958
 H        -6.6383695024       -4.4498501658       -3.2407742278
 H       -10.3877034175       -0.5186667566       -8.8517696461
 H       -10.4188047817        0.8718578057       -7.8384497360
 H       -10.5176313398       -0.8082323049       -7.2254378285
 H        -7.0358975497        1.0299910002       -8.1926587490
 H        -8.5199170714        1.4836554861       -8.9200237945
 H        -7.5221159723        0.0839873157       -9.5869517076
 H        -5.2429292014       -1.4040063623       -2.3409712223
 H        -3.6251021313       -1.2784536748       -3.0588603512
 H        -5.0981527383       -1.8236788659       -4.0932040930
 H        -4.3326565879        1.0937400463       -1.8018071995
 H        -6.0105692201        1.4634023878       -2.2889633900
 H        -4.7727297205        2.3336173083       -2.9496767057
 H         2.8639330623        1.8385362074       -5.6883454832
 H         2.0508268197        1.1696901460       -4.1056800152
 H         1.5330411328        2.6533302587       -4.8827478042
 H         0.5443366775        1.0476970237       -8.1960295624
 H         2.1177716406        1.7029225302       -7.6150484376
 H         0.7060543295        2.6624046082       -7.4851156440
 H         0.2318993950       -5.7875308968       -5.4302320832
 H        -1.6906671031       -5.9100359271       -5.3148536306
 H        -0.9048897709       -4.5087365084       -4.9420269178
 H        -0.6091928702       -6.2000225020       -8.9205097528
 H        -1.4860110330       -7.0231997139       -7.6421512088
 H         0.2014403021       -6.8365482461       -7.4986647268
 H        -3.8858853831       -0.3924937299      -12.4776686380
 H        -2.6387791823       -0.6153565823      -11.4068662289
 H        -4.0813700491        0.0737055855      -10.7546046836
 H        -5.5823110194       -2.0520224877      -12.7292031982
 H        -6.2398543759       -1.7123657593      -11.1063168667
 H        -6.0047835093       -3.3193730556      -11.6873511628
 H        -2.8544103589       -5.6188938934      -17.3967114443
 H        -1.6669798680       -6.4339805844      -16.6372584185
 H        -1.3209199721       -5.8438052527      -18.2270019655
 H         0.8450915645       -5.1815734467      -16.4279410536
 H        -0.0712454141       -4.9822431521      -14.9278281932
 H         0.7090006434       -3.5178762697      -15.7375137750
 H        -2.7058306813        0.8993681532      -21.1050233334
 H        -1.6754574542        2.2450576809      -20.8230537614
 H        -2.3014734569        1.2649658351      -19.4310510455
 H         0.6801905645        1.5722816600      -21.9198152109
 H        -0.3544574441        0.6184418552      -22.9159960106
 H         1.0374800262       -0.1062026193      -21.9008515864
 H         4.2388839601        3.8910684199      -17.3629345733
 H         5.9717071735        3.9988375672      -17.6526903537
 H         5.3671326859        2.4240578885      -17.2501367837
 H         4.9344357364        4.8625457803      -20.2719539810
 H         5.6082116797        3.4943406374      -21.1996244718
 H         6.4613281600        4.0879856977      -19.8451435821
 H         5.9714313375       -2.4909887949      -17.9362254498
 H         5.5698670200       -4.0677359708      -18.0865904117
 H         4.2189201032       -2.8382720310      -18.1082262894
 H         7.2280774928       -3.2878229485      -21.3159239699
 H         7.2148214852       -4.1343288456      -19.8447300824
 H         7.5155185131       -2.4941817741      -19.8596498378
 Na        1.8860097295       -2.2159057348      -19.3491892468
 Na       -4.8139558793       -1.9589036557       -6.7379938079
