232

 C         5.1386390684       -5.2088110746      -21.3867426103
 C         4.4640267140       -3.9831133838      -20.6879241712
 O         3.2576356094       -3.7934516338      -20.7508445773
 C         5.3415365790       -2.8795911922      -19.8673599150
 C         4.8549281155       -1.3682356331      -20.1884055754
 O         3.8048384726       -0.8613797823      -19.9508640577
 C         5.9803452121       -0.4588433547      -20.8217739681
 C         5.6148108612        1.0533784961      -20.7892105929
 C         5.4672805318        1.6248741219      -19.3193739716
 O         5.6409703424        0.8611825820      -18.3895617119
 C         4.7285206127        2.9392049733      -19.2047374751
 C         3.1511171838        2.7290973888      -19.6758353576
 O         2.8333457858        3.0083319936      -20.8234243504
 C         2.0517826166        2.3911997875      -18.6148371850
 C         0.7262217632        2.0903522226      -19.1751120927
 C         0.3772623342        0.6981879862      -19.4040091568
 O         1.0498355195       -0.1494609486      -18.8584649752
 C        -0.6130592397        0.3355466450      -20.4955507312
 C        -0.8904586421       -1.2319462530      -20.3107875150
 O        -0.0936111536       -1.9796029392      -20.8246802115
 C        -2.0224682047       -1.7382383054      -19.4177214946
 C        -1.8264951291       -3.1483884143      -19.0674270477
 C        -0.8130877313       -3.3812872888      -17.9002478999
 O         0.3432467557       -2.9374593923      -17.9827206659
 C        -1.1308765136       -4.2123742653      -16.7074359329
 C        -2.0323262749       -3.3619062716      -15.7535166050
 O        -1.8908467158       -2.1488765418      -15.8194986646
 C        -2.6533790813       -4.0866125212      -14.5548983493
 C        -3.4131588435       -3.0902390301      -13.6517580142
 C        -3.2212102142       -3.1823443938      -12.0613938608
 O        -2.3166488791       -3.8969017625      -11.6547888973
 C        -3.9640574102       -2.1549849534      -11.2551597340
 C        -3.9204294887       -2.3668902234       -9.6011897523
 O        -3.7075031591       -1.4431978347       -8.8583346557
 C        -4.1856779379       -3.7596027976       -9.0529640484
 C        -2.9837898103       -4.6550501157       -8.7052424099
 C        -2.2645748582       -4.3288707039       -7.4264606847
 O        -2.6549886673       -3.5223312754       -6.5757072612
 C        -0.9799742906       -5.1055072276       -7.1055297581
 C         0.0624693066       -3.9732032881       -7.5602436968
 O         0.8214104252       -4.1008223864       -8.5400221710
 C         0.2232028572       -2.7677393337       -6.4922923859
 C         0.5925641671       -1.4253968841       -7.1687301302
 C         1.0898791243       -0.4867805026       -5.9526835272
 O         1.4169322330       -1.1071744126       -4.9827838114
 C         0.9802686574        1.0415623556       -6.1018949785
 C        -0.5600270550        1.3815598477       -5.6055199098
 O        -1.2742229339        2.1296952074       -6.1786937753
 C        -0.8958575541        0.7965972491       -4.2048675373
 C        -2.3128461720        0.9656736262       -3.6894563896
 C        -3.3841388785        0.5035880028       -4.6424615560
 O        -3.2504066595        0.0147638440       -5.7316578155
 C        -4.7887545475        0.3701696873       -3.8933589605
 C        -5.9152066952        0.5133549505       -4.9511568443
 O        -6.1350455231       -0.3058592216       -5.8209668353
 C        -6.9440584737        1.6273543890       -4.7553096464
 C        -7.9709402210        1.7856645657       -5.9036763359
 C        -8.5031026737        0.2758355973       -6.2008511183
 O        -8.6103927217       -0.4973108927       -5.2316007745
 C        -8.6737042783       -0.2517618116       -7.6190171369
 C        -8.0519183199       -1.7336929043       -7.7380957745
 O        -6.9312803286       -1.8390343818       -8.2498325027
 C        -8.8482469702       -2.9149356708       -7.2617115034
 C        -7.9157970175       -4.1506903027       -7.2849631612
 C        -7.0156648702       -4.3393644914       -6.1033147603
 O        -6.0642457135       -3.6730021617       -5.8197182015
 C        -7.3178404802       -5.5365866198       -4.9883728495
 C        -8.7653133044       -5.6679284876       -4.7011316008
 O        -9.5983754766       -5.7875531592       -5.5998506482
 C        -9.2088861599       -5.3897382593       -3.2438163260
 C       -10.7495394150       -5.1735102976       -3.0902207279
 C       -11.1757689482       -3.8265240317       -3.6858547697
 O       -10.3671595968       -3.0553852550       -4.1675204297
 C       -12.6662989036       -3.4616226579       -3.4196961206
 C       -12.6701924517       -2.9126619456       -1.9885889702
 O       -13.1342344393       -3.5691120673       -1.0734816462
 C       -12.1244208327       -1.4357380919       -1.8163296065
 C       -11.3608018025       -1.2670572680       -0.5051123195
 C       -11.0971668530        0.2124004005       -0.1538548554
 O       -11.8645412175        1.0602292990       -0.5842119638
 C       -10.0388539019        0.6542865636        0.8726428471
 C        -9.8244772940        2.2995628339        0.7485759377
 O        -8.6599309653        2.6503881378        0.8506555371
 C       -10.9341467300        3.2413026247        0.8077577335
 C       -10.5450495619        0.3502274243        2.2861005253
 C        -8.6843472860        0.0240031525        0.5942586325
 C       -13.0029284125       -2.4032865031       -4.4158675099
 C       -13.7582916939       -4.5950814943       -3.4681093741
 C        -6.9725595818       -6.8910446297       -5.6645754204
 C        -6.3636578358       -5.3043063511       -3.8023604010
 C       -10.2727707461       -0.2625945136       -7.9135570316
 C        -7.9285636607        0.4928246448       -8.7853215637
 C        -4.7738593203       -1.1186313692       -3.3064289684
 C        -4.8870435619        1.4141894036       -2.7707481448
 C         1.9808891247        1.6807245409       -5.0946406164
 C         1.1212420828        1.5717309492       -7.5084497734
 C        -0.9354993781       -5.3317117564       -5.5487927993
 C        -0.6385712031       -6.4635880172       -7.7874525629
 C        -3.5383307698       -0.6889335852      -11.6379843548
 C        -5.5476714094       -2.2148332390      -11.5526523419
 C        -1.9515684067       -5.4091310343      -17.3013095083
 C         0.1213920719       -4.5572272761      -15.9054620208
 C        -1.9336800363        1.2069497072      -20.5723383018
 C         0.0556325666        0.5084583417      -21.7564934704
 C         4.8945874510        3.3579532497      -17.6772537550
 C         5.3486513706        4.0184070870      -20.1646668663
 C         5.1941665582       -3.1110415869      -18.3868205777
 C         6.7850200982       -3.1322842128      -20.3531410490
 H         4.4139467521       -5.9652403779      -21.5954104016
 H         5.7675099032       -5.7359585109      -20.6466482177
 H         5.7684496556       -4.9856812630      -22.2094003829
 H         5.9305829732       -0.7403906876      -21.8613484037
 H         6.9886413704       -0.5919430012      -20.5028986483
 H         4.7120912874        1.1345184815      -21.3452564038
 H         6.4820722261        1.5471742538      -21.3948762199
 H         2.1076029962        3.0876851699      -17.7897108708
 H         2.3982889909        1.4316711673      -18.1847145485
 H         0.6044258089        2.6293146781      -20.1898412725
 H        -0.0439671692        2.5130155347      -18.5188501855
 H        -2.9270810259       -1.4758394565      -19.9587507952
 H        -2.0336306958       -1.0379537509      -18.6084785493
 H        -1.4129030180       -3.7416603104      -19.9060083487
 H        -2.7415419460       -3.6166178351      -18.7408836034
 H        -1.8445030967       -4.7394184614      -14.0061888997
 H        -3.2847666533       -4.9428386975      -14.8958359369
 H        -4.4375379568       -3.0948241697      -13.9574761362
 H        -2.9619742076       -2.1766659703      -14.0538450239
 H        -4.8017312785       -4.3304898175       -9.7454304676
 H        -4.8382683379       -3.4693885662       -8.2286128644
 H        -2.2037077380       -4.6222801810       -9.4758761633
 H        -3.4183091340       -5.6589397252       -8.6294433761
 H         0.9648480045       -3.0622123316       -5.7403497808
 H        -0.6707814541       -2.6773738761       -5.8457727746
 H        -0.2360781880       -0.9753647297       -7.6987488109
 H         1.3028867252       -1.7061151700       -8.0097644120
 H        -0.2533514368        1.5136792158       -3.5655651791
 H        -0.4474660789       -0.1553464037       -3.9175069649
 H        -2.4464902888        2.0068527840       -3.3339899638
 H        -2.3524498784        0.2654801042       -2.8861329245
 H        -6.5782827724        2.6204402726       -4.5047449650
 H        -7.4568131168        1.3791960193       -3.8299571225
 H        -7.5140928373        2.3332998529       -6.7350991864
 H        -8.7489492496        2.4234785233       -5.4409086651
 H        -9.6314211038       -3.0613577433       -8.0224190877
 H        -9.3789913483       -2.6283860674       -6.3094065085
 H        -7.2497702633       -3.9937885127       -8.0826725304
 H        -8.5290259745       -4.9882661350       -7.5293746670
 H        -8.8807362577       -4.4135157836       -3.0234454434
 H        -8.8162933669       -6.2182116511       -2.6688127601
 H       -10.8097023208       -5.0658316222       -1.9910507734
 H       -11.3030744162       -6.0593730358       -3.4002391522
 H       -12.9997881304       -0.8304113264       -1.7710378473
 H       -11.4834888284       -1.0772727206       -2.6079878405
 H       -10.4402003285       -1.8710162364       -0.6046675470
 H       -11.9302350194       -1.5947863495        0.3604247403
 H       -10.7065667181        4.2450815628        1.2450114494
 H       -11.8328986601        2.8875582765        1.3917631773
 H       -11.1862024789        3.4799809645       -0.2835710077
 H        -9.8166641449        0.7260733547        3.0499154658
 H       -10.7381784222       -0.7198408508        2.5829208482
 H       -11.5999412921        0.7774947683        2.4801286571
 H        -8.7128564767       -1.0245135557        0.7704280949
 H        -7.8440561220        0.4587136381        1.1866867695
 H        -8.3390201702        0.2826108885       -0.3792958785
 H       -13.1582203057       -2.7927193866       -5.4056694502
 H       -12.2373882060       -1.6857224666       -4.6741266711
 H       -13.8779141094       -1.9758904296       -4.1203228317
 H       -14.7800997111       -4.2456692978       -3.2438975657
 H       -13.3163268090       -5.3833384517       -2.7904589478
 H       -13.9713245934       -4.9468837386       -4.5013710445
 H        -7.3804494140       -6.8473549757       -6.7585354230
 H        -7.4386322302       -7.7382714387       -5.1601838855
 H        -5.9279600161       -7.0575876388       -5.8451962488
 H        -5.3138862522       -5.3742856685       -4.1209617217
 H        -6.5861049672       -6.0230102431       -2.9747349146
 H        -6.5451883461       -4.3058506112       -3.4665082735
 H       -10.5621400115       -0.7663426888       -8.8208834846
 H       -10.6106762925        0.7909548030       -8.0364920725
 H       -10.8029215889       -0.7935473386       -7.1997738921
 H        -6.8325911414        0.4548213227       -8.5170936616
 H        -8.2759900105        1.4629006374       -8.8917441520
 H        -8.1236915786       -0.1384311561       -9.6542635703
 H        -5.2899742159       -1.2059148711       -2.2874871188
 H        -3.7042553983       -1.4528731125       -3.0334992903
 H        -5.3353933400       -1.7806994536       -3.9684959769
 H        -4.2799543338        1.2211059022       -1.9725378757
 H        -5.8962020881        1.4892019251       -2.4367082939
 H        -4.7528755118        2.4192312239       -3.1345487160
 H         3.0579685826        1.5411519483       -5.3457220076
 H         1.7073075061        1.2870441122       -4.0446250112
 H         1.7195974109        2.8409428247       -5.0334975117
 H         0.3074576942        1.1027737589       -8.0974244198
 H         2.1154569384        1.3644736277       -7.8933567475
 H         1.0338823743        2.5862949007       -7.5739235921
 H         0.0203445116       -5.7710851560       -5.2852991861
 H        -1.8400919078       -5.8550903782       -5.3145058975
 H        -1.0032869663       -4.4201617173       -4.9201793743
 H        -0.7171243687       -6.3583359284       -8.9083508598
 H        -1.2871801305       -7.2886553427       -7.3292960737
 H         0.3997247573       -6.6878457834       -7.5448241094
 H        -3.6164530515       -0.5191056573      -12.7073515025
 H        -2.5347930496       -0.3564816385      -11.3657059073
 H        -4.2135023023       -0.0869413144      -11.1321355529
 H        -5.7706982731       -2.2510511510      -12.6669030863
 H        -6.0517586448       -1.4593765735      -10.9945103733
 H        -6.0334687657       -3.1577168270      -11.1891051444
 H        -3.0923393374       -5.3801761046      -17.1693961324
 H        -1.8096096834       -6.3219024931      -16.7830021910
 H        -1.7145925195       -5.5737023597      -18.3683103213
 H         0.6145583675       -5.3609368253      -16.4321870065
 H        -0.1569008497       -5.0142454727      -14.9612626935
 H         0.7420118688       -3.7007729389      -15.7502060861
 H        -2.5049077383        0.9567728392      -21.4485371956
 H        -1.6242661894        2.2076036325      -20.8051664729
 H        -2.4259242443        0.9746325522      -19.6062760313
 H         0.3047293603        1.5109958187      -21.7893914009
 H        -0.5740009751        0.3809556131      -22.6310309576
 H         1.0544820209       -0.0208565172      -21.8623625586
 H         3.9930257622        3.5926709127      -17.1157290867
 H         5.5508052068        4.2702398078      -17.5250817434
 H         5.5613524035        2.5570448911      -17.1499824386
 H         4.8720260074        4.9802049076      -19.8140991021
 H         5.2340882006        3.8435865363      -21.2010187022
 H         6.4966488373        4.1434206174      -20.0314799720
 H         5.8310921972       -2.3671344737      -17.8544203149
 H         5.6463944783       -3.9783232634      -17.9870279597
 H         4.1759634250       -3.0159478200      -18.1243863977
 H         7.0054462334       -3.1851922800      -21.4312908502
 H         7.1702696114       -4.1113929074      -19.9441551207
 H         7.5703672833       -2.5283812275      -19.9492024746
 Na        1.9642345087       -2.1265398215      -19.3371949157
 Na       -4.7912617209       -1.7609138191       -6.6414112100
