232

 C         4.9896420842       -5.1092626396      -21.2355961740
 C         4.3884926213       -3.8652190944      -20.6326123483
 O         3.2008663383       -3.8563969441      -20.4385709411
 C         5.3577551823       -2.8350284824      -20.0085222842
 C         4.9673574128       -1.3522705811      -20.3193291344
 O         3.7922342889       -1.0429685707      -20.0162740764
 C         5.8320532352       -0.3347718143      -20.9710897975
 C         5.3633244000        1.1563834824      -20.6851989709
 C         4.9901887463        1.5686917340      -19.2666391248
 O         5.3075848881        0.9051352340      -18.3135008627
 C         4.4416656422        3.1190692883      -19.0456451354
 C         2.9752601688        3.1195016674      -19.5617164719
 O         2.7976560779        3.3869398350      -20.7256790904
 C         1.9260582383        2.5334500184      -18.5439494740
 C         0.5543920093        2.3252604822      -19.2464134505
 C         0.4404884272        0.7855741782      -19.5019624245
 O         1.0193849312        0.0286940651      -18.7373012249
 C        -0.6015197591        0.3084134737      -20.5940204840
 C        -0.7982721881       -1.2205231490      -20.2956554045
 O        -0.0915640334       -2.1218912332      -20.7333108717
 C        -1.8127098102       -1.6435250234      -19.1671931057
 C        -1.7725392282       -3.1904507350      -19.0105380429
 C        -0.6482101658       -3.5086804856      -17.9479955032
 O         0.4379668449       -3.0462159239      -17.8885741937
 C        -1.2628488989       -4.2488412141      -16.6157495898
 C        -2.0617268754       -3.1819093294      -15.7063327869
 O        -2.3437173158       -2.0623386007      -16.0054852795
 C        -2.6573805191       -3.9155073654      -14.4488551282
 C        -3.8375050495       -3.3860651065      -13.4704555707
 C        -3.2982825674       -3.2988792019      -12.1298294936
 O        -2.3574256416       -3.9821216197      -11.7814784545
 C        -3.8790955542       -2.1489977600      -11.1292555862
 C        -3.7056008700       -2.4774898061       -9.6558022870
 O        -3.5758560495       -1.5247738375       -8.8948446524
 C        -4.0021566548       -3.9248376372       -9.2556479321
 C        -2.7402375587       -4.6639577426       -8.9149459811
 C        -2.2963708346       -4.3872623975       -7.4827197071
 O        -2.8468619407       -3.5226597316       -6.8179474488
 C        -1.0210790500       -5.0586100750       -7.0423644873
 C         0.0673002453       -3.8438948414       -7.4391816763
 O         0.4948617587       -4.0104430390       -8.5316193655
 C         0.3206378143       -2.7493116498       -6.4700203654
 C         0.7878695957       -1.4700052606       -7.0626327923
 C         1.1369635526       -0.4934219819       -6.0309305027
 O         1.5063360804       -0.9202180923       -4.9304109815
 C         0.9973306904        1.0398229337       -6.1576558477
 C        -0.3871360614        1.3262572227       -5.5203568295
 O        -1.2758165953        1.9084590661       -6.1311328247
 C        -0.6181572059        0.9272599891       -4.0528055515
 C        -2.1119748656        0.8815537671       -3.5860643669
 C        -3.1980435403        0.3168170738       -4.5738501245
 O        -2.8895789766       -0.2770320422       -5.5903687392
 C        -4.6927560926        0.3429493244       -3.9041228374
 C        -5.8978984813        0.5351273454       -4.9237908186
 O        -5.9316374573       -0.1284672391       -5.9361398431
 C        -7.0468802171        1.5265617643       -4.7369691447
 C        -7.9107463458        1.5033234579       -5.9833734536
 C        -8.4486122433        0.0800464418       -6.2064900309
 O        -8.8486231585       -0.6333239957       -5.3481030365
 C        -8.8111809715       -0.3813910744       -7.7483263236
 C        -8.0123198789       -1.7641395361       -7.9735882377
 O        -6.9675384541       -1.8225818239       -8.5747072096
 C        -8.6863795639       -3.1370432239       -7.3613637893
 C        -7.6097262360       -4.2140021884       -7.4013359030
 C        -6.8651034586       -4.2746196425       -6.0368800082
 O        -6.0494350701       -3.3821939121       -5.7177107062
 C        -7.2690072701       -5.4381383008       -5.0500103224
 C        -8.8251965774       -5.5472545679       -4.7027204666
 O        -9.5726398199       -5.7515196497       -5.6296256447
 C        -9.2222887416       -5.4876625777       -3.2833528157
 C       -10.7384914602       -5.1904380236       -2.9851344063
 C       -11.1728936552       -3.8162392466       -3.5144804909
 O       -10.4858701180       -3.1256059277       -4.2479082123
 C       -12.6697593705       -3.3425501025       -3.2622775200
 C       -12.7491061084       -2.6367866025       -1.8767650880
 O       -13.2381889728       -3.2987641409       -1.0150677163
 C       -12.1299726976       -1.3087857560       -1.6966913748
 C       -11.3107752732       -1.2175477572       -0.4275095399
 C       -11.1067859748        0.2936590718       -0.2143891814
 O       -11.7558862026        1.0552262161       -0.8756877693
 C        -9.9876319572        0.6631725988        0.7917051212
 C        -9.6760175977        2.2332287951        0.7835888576
 O        -8.5524800901        2.6807776536        0.7681176379
 C       -10.9556255545        3.1183321193        0.7296199770
 C       -10.4346213614        0.3303763756        2.2557506642
 C        -8.7215973344       -0.1006533218        0.4404900479
 C       -13.1701331739       -2.4783581343       -4.4707652168
 C       -13.4862344362       -4.6001672943       -3.2976162119
 C        -6.9008575193       -6.7658717407       -5.8066728948
 C        -6.3815437284       -5.4017133768       -3.7940086517
 C       -10.3523652010       -0.5596046308       -7.8000651889
 C        -8.4734984091        0.7024341817       -8.6979242306
 C        -5.0753095231       -1.0717164845       -3.2034736825
 C        -4.7596110070        1.5012972639       -2.8538879519
 C         2.1733258971        1.6822600173       -5.3545612719
 C         1.1758350073        1.4357262967       -7.6351612471
 C        -0.9689802565       -5.3261426213       -5.5315287150
 C        -0.6825061585       -6.3710766654       -7.8336690818
 C        -3.1247788296       -0.8280443430      -11.4978219128
 C        -5.3627062716       -2.0852769082      -11.3359419193
 C        -2.2754200992       -5.3616276245      -16.9481840372
 C        -0.0373226295       -5.0486796919      -15.9719251658
 C        -1.9605692298        1.0000224572      -20.5028745526
 C         0.1570874468        0.3391163517      -22.0072849441
 C         4.5111467471        3.5092374255      -17.6317794019
 C         5.3040256775        4.0731429319      -19.9038180336
 C         5.1180462134       -3.0391104072      -18.4418518865
 C         6.8982891134       -3.0277170787      -20.1989303296
 H         4.5692783259       -5.3917293404      -22.2367974903
 H         4.8492073747       -5.9910648925      -20.6607702063
 H         6.0560170364       -4.9685657166      -21.4428083208
 H         5.9598738942       -0.6436943226      -22.0419140026
 H         6.8165059347       -0.4067249008      -20.4339771867
 H         4.4829801264        1.3487529411      -21.3286711862
 H         6.1155320363        1.7806585933      -20.9602156199
 H         1.8803926987        3.3468902064      -17.8108249969
 H         2.3463755744        1.7061947951      -17.9750315234
 H         0.5248096659        2.9930919273      -20.0729654949
 H        -0.2888271655        2.6152937126      -18.5793835708
 H        -2.8113479402       -1.2361721364      -19.3867574808
 H        -1.5399568399       -1.1368152032      -18.1970603325
 H        -1.5384791266       -3.8315714722      -19.8418266159
 H        -2.7174715942       -3.5693748370      -18.5369466789
 H        -1.8072798892       -4.1610898311      -13.9169819278
 H        -2.9700246714       -4.9031455945      -14.6928872901
 H        -4.7689225160       -4.0663505022      -13.5212875192
 H        -4.1331881241       -2.3549378418      -13.8483791025
 H        -4.5053936376       -4.4004584256      -10.1386188333
 H        -4.7413559120       -3.9122225279       -8.4087647464
 H        -1.9438139195       -4.5031322221       -9.6580866266
 H        -3.0464881307       -5.7142462903       -8.8385945075
 H         0.9116391082       -3.1337009141       -5.6266164663
 H        -0.6089065931       -2.5973846777       -5.9086890302
 H         0.0475740408       -1.0545822282       -7.7415807199
 H         1.6568279041       -1.4605281307       -7.6395344218
 H        -0.0761649732        1.6338304329       -3.4718317776
 H        -0.1349138476       -0.0290086188       -3.8166790691
 H        -2.4088647381        1.9313965081       -3.4968287254
 H        -2.1016042115        0.2797656016       -2.6128357983
 H        -6.6300257669        2.5374985571       -4.4957602622
 H        -7.6234948364        1.3978038882       -3.7713864780
 H        -7.2790783423        1.8106294263       -6.8272584499
 H        -8.7525037411        2.1670166212       -5.9538373871
 H        -9.5603047788       -3.3382437505       -7.9998169952
 H        -9.0255662106       -2.9351562687       -6.3720726454
 H        -6.8882668977       -3.9571801709       -8.2540312396
 H        -8.1120430027       -5.1865628132       -7.5576140623
 H        -8.6699155529       -4.5715608297       -2.9142844283
 H        -9.0152528424       -6.5082606377       -2.8889174768
 H       -10.7632712755       -5.2812514728       -1.9195606656
 H       -11.2479201057       -5.9909010054       -3.5021242877
 H       -12.9840927410       -0.5590512361       -1.5720378015
 H       -11.6138671265       -0.9345132201       -2.6357834585
 H       -10.3662828254       -1.7449577449       -0.4660553726
 H       -11.9394875622       -1.5850700915        0.4129250337
 H       -10.6848871082        4.1164189293        1.0796119250
 H       -11.6490231491        2.8513175665        1.4511465249
 H       -11.3300615030        3.2737453398       -0.2238961199
 H        -9.5228825574        0.0217543399        2.7338095015
 H       -11.0723904676       -0.5465275786        2.2740956269
 H       -10.9885205379        0.9699439048        2.8558073546
 H        -8.8140619917       -1.1186710310        0.8444749796
 H        -7.9120575935        0.3184946858        0.9323274052
 H        -8.3786735770       -0.0438991825       -0.5900598237
 H       -12.8399237841       -3.0136952496       -5.3917362415
 H       -12.6197293253       -1.5588785858       -4.6143406319
 H       -14.2839591370       -2.2093821974       -4.5711856068
 H       -14.5601924896       -4.4070030732       -3.4929810397
 H       -13.2346480783       -5.1836012967       -2.4342405771
 H       -13.3416631359       -5.0854232949       -4.2740423317
 H        -7.4855094567       -7.0795687706       -6.5826897209
 H        -6.9410426408       -7.4874560024       -5.0145565334
 H        -5.8900627310       -6.7342589508       -6.2402636750
 H        -5.3631109756       -5.4898852142       -4.1163940675
 H        -6.6188844604       -6.2694144044       -3.2298597656
 H        -6.4408451510       -4.4529648168       -3.2233576063
 H       -10.7617659068       -1.1272227687       -8.6676933364
 H       -10.7864603832        0.4190028445       -7.9569258171
 H       -10.7235227992       -1.1780091580       -6.9027525012
 H        -7.4330595792        0.5793460917       -8.8469236608
 H        -8.7386702708        1.7010439120       -8.2020341722
 H        -9.0818564967        0.6754302210       -9.6240908118
 H        -6.0539091428       -0.8712840457       -2.7405054551
 H        -4.4534467099       -1.3557735114       -2.4385364892
 H        -5.1943440040       -1.8473549981       -3.9648783705
 H        -4.0073900917        1.3730122034       -2.0251372004
 H        -5.7823572750        1.4687681283       -2.3935705059
 H        -4.6922726885        2.4808356849       -3.2895614663
 H         3.0592976006        1.1586451208       -5.7349195358
 H         2.1761009143        1.4472187683       -4.3282306143
 H         2.2030427281        2.6647747565       -5.4820623131
 H         0.1873445776        1.4938972644       -8.0737118376
 H         1.8937417677        0.8159560620       -8.1405320344
 H         1.6558362313        2.4599501395       -7.7246209184
 H         0.1023420577       -5.4009797057       -5.2267963502
 H        -1.5333442711       -6.2400955962       -5.3221933808
 H        -1.3268677727       -4.5306636722       -4.9446005128
 H        -0.7410224291       -6.2659020481       -8.9260492137
 H        -1.3190869221       -7.1029216746       -7.4336651251
 H         0.3630423292       -6.6669586202       -7.5265290940
 H        -3.0543720918       -0.5928561648      -12.5698018722
 H        -2.0815775127       -1.0239168224      -11.1235309019
 H        -3.5365642414        0.1237224343      -11.0125982611
 H        -5.5874035469       -1.7965776486      -12.3412133002
 H        -5.7700768163       -1.3787134115      -10.5538462677
 H        -5.9154555731       -2.9933612651      -11.1045895256
 H        -3.2285427226       -5.0824469059      -17.2919177194
 H        -2.5906624286       -5.9591998135      -16.0599628460
 H        -1.8540777009       -6.0324884915      -17.7161804126
 H         0.4188163823       -5.6604433859      -16.7393928270
 H        -0.2874570217       -5.7387551325      -15.1901612699
 H         0.5884213902       -4.2809839097      -15.5286508088
 H        -2.4240671984        0.8930117314      -21.5058365277
 H        -1.6851915994        2.0815875386      -20.6182161375
 H        -2.4722624820        0.6403267819      -19.6699334795
 H         0.2783257989        1.2665850601      -22.5773852825
 H        -0.3244978685       -0.3828313675      -22.6473530791
 H         1.1615110506       -0.0737738895      -21.8820730690
 H         3.6457520452        3.2680295953      -17.0542442375
 H         4.4815177711        4.5539564140      -17.6385607903
 H         5.3233867573        3.2426732279      -17.0329520583
 H         5.2522714412        5.0288761588      -19.4297177349
 H         4.9826178574        4.0911125086      -20.9939357601
 H         6.3202217883        3.8221113407      -19.9726051453
 H         5.6439148559       -2.3374828772      -17.7991745534
 H         5.5615449658       -4.0104695607      -18.1358854820
 H         4.0426364136       -3.1716608685      -18.2876169224
 H         7.2826913582       -2.6496643853      -21.1456281577
 H         7.3274749170       -3.9948855741      -20.0476562671
 H         7.5328729675       -2.5363117431      -19.4383232845
 Na        1.9783200697       -2.2367239875      -19.6307479370
 Na       -4.3289712212       -1.7161648086       -6.7737212771
