232

 C         5.0199508500       -4.9931841618      -21.3743709976
 C         4.5192734543       -3.8460929946      -20.5009283957
 O         3.2662725705       -3.8495319504      -20.3903114498
 C         5.3802959975       -2.7277848683      -19.8366891575
 C         4.7847753211       -1.3086223300      -20.2936091889
 O         3.6290040763       -1.0461077786      -20.2213046604
 C         5.7826596910       -0.0774069289      -20.6109514059
 C         4.9994521665        1.2024656582      -20.6533822211
 C         4.7917556739        1.6429944008      -19.2325153822
 O         4.8903257308        0.8714965022      -18.3226428517
 C         4.3815202761        3.2165231408      -18.9931424742
 C         2.8805188737        3.3313598958      -19.4994020436
 O         2.5954345219        3.5647593995      -20.6418873581
 C         1.5743209809        2.9924207908      -18.5141679021
 C         0.5102084382        2.2977938888      -19.3795043380
 C         0.5201112389        0.8623033495      -19.5006053725
 O         1.1745038707        0.0693102317      -18.8444105127
 C        -0.4936936764        0.2792469442      -20.6284081009
 C        -0.7258022912       -1.2825009133      -20.3609574215
 O        -0.1071536956       -2.1339818434      -20.9667686031
 C        -1.7254278633       -1.6229624296      -19.2765738128
 C        -1.8280652302       -3.0688994063      -18.8411994967
 C        -0.7913751702       -3.6656142414      -17.7696404075
 O         0.4531717293       -3.5085874511      -17.8004837702
 C        -1.4436474044       -4.4443398995      -16.6052577391
 C        -2.2215856224       -3.5110749725      -15.6149086887
 O        -2.6704081449       -2.4474297634      -16.0300028955
 C        -2.5245316315       -4.0849842043      -14.2779599114
 C        -3.6276835044       -3.3027997916      -13.6266455084
 C        -3.3079954012       -3.1402529365      -12.1016492673
 O        -2.5095647350       -3.9354074921      -11.6585858874
 C        -3.8462492353       -2.0169535885      -11.2031693594
 C        -3.7883882665       -2.5385561838       -9.8105219541
 O        -3.3659204279       -1.8074799320       -8.9427044516
 C        -4.1225983293       -4.0122608616       -9.3159037867
 C        -2.8090759737       -4.7468994972       -8.8730708981
 C        -2.3057277400       -4.4830629542       -7.4646366903
 O        -2.9423176748       -3.7960027916       -6.6898478497
 C        -0.9093560021       -5.1045492243       -7.0064577115
 C         0.1381273527       -3.9243532539       -7.4812916003
 O         0.3894493736       -3.7989269179       -8.6700930747
 C         0.3771632848       -2.8188153052       -6.3492611356
 C         0.9721231692       -1.5439855302       -6.9728423612
 C         1.3152412924       -0.5071096550       -5.9045407422
 O         1.7469219699       -0.9649933183       -4.8691627986
 C         1.0827979308        0.9810120908       -6.1333575660
 C        -0.2738676518        1.3441660704       -5.5197769370
 O        -1.1254300764        1.8459231450       -6.2466007680
 C        -0.5495704184        0.8795132897       -4.0681010946
 C        -2.0347583403        1.1645926966       -3.6674742796
 C        -3.1092835937        0.2220080294       -4.2510760987
 O        -2.8771146286       -0.6963138591       -5.0329546752
 C        -4.5910804080        0.3917080246       -3.8325221042
 C        -5.5528834706        0.4748116778       -5.1121896177
 O        -5.2867275165       -0.0276738405       -6.1923609261
 C        -6.9117030794        1.2583715533       -4.8587829616
 C        -7.9053685164        1.2762597456       -6.0022508437
 C        -8.6344435729       -0.0549688300       -6.2935933753
 O        -8.9654322007       -0.7293215372       -5.3370767445
 C        -8.9781098688       -0.5066431288       -7.7862669877
 C        -8.0183107339       -1.6219114192       -8.0874122568
 O        -6.9921767153       -1.4956380984       -8.7797961999
 C        -8.5057629151       -2.9747452349       -7.4178229485
 C        -7.5204371130       -4.1615306103       -7.3566973129
 C        -6.7981277286       -4.1528969913       -5.9718111465
 O        -5.9565460517       -3.3629474254       -5.6028179699
 C        -7.1068303989       -5.4498431017       -5.0889930435
 C        -8.6476312400       -5.3998686090       -4.7223484946
 O        -9.5086956709       -5.5931813997       -5.5487833754
 C        -9.0820840897       -5.3369075854       -3.1901945575
 C       -10.6847661330       -5.2383176593       -3.1468085426
 C       -11.2201622772       -3.9266532508       -3.7070407310
 O       -10.4648076028       -3.1261112228       -4.2079100906
 C       -12.8080307987       -3.5208452505       -3.3204194000
 C       -12.7973902548       -2.7830634621       -1.9282014922
 O       -13.3518544158       -3.2381421451       -0.9135083942
 C       -12.1717133642       -1.3622567621       -1.8959497796
 C       -11.5178462473       -1.0947170403       -0.5252823421
 C       -11.0501335724        0.4317595283       -0.2716175310
 O       -11.4582438344        1.3601851835       -0.9216081204
 C        -9.8941898596        0.6487037075        0.8275492232
 C        -9.6077337257        2.2653402495        0.7848080917
 O        -8.4835828003        2.6544780937        0.6034794895
 C       -10.7054159288        3.2919659152        0.9053535771
 C       -10.3540900408        0.2861742313        2.2403211075
 C        -8.6171513723       -0.0570768797        0.3836988228
 C       -13.2294871619       -2.4996753730       -4.3870703746
 C       -13.6966753658       -4.8389189865       -3.2469155812
 C        -6.8182974652       -6.7073914867       -5.9234834268
 C        -6.2555599605       -5.3111613325       -3.8157590393
 C       -10.4402679512       -1.0242463359       -7.7210013006
 C        -8.8360371664        0.6290342084       -8.8823246225
 C        -5.0237782315       -0.9528125041       -3.2188787881
 C        -4.9023189945        1.5184834367       -2.7637108012
 C         2.2687049622        1.7966323529       -5.5753148925
 C         0.9635354239        1.3949461453       -7.6627297946
 C        -0.9945485637       -5.2725481649       -5.4541669361
 C        -0.5457023039       -6.3897429226       -7.7460736738
 C        -2.8817529594       -0.8714746832      -11.4463033294
 C        -5.3433992971       -1.5982651584      -11.5988557098
 C        -2.3825090957       -5.5475726201      -17.2123854838
 C        -0.2720430675       -5.0125968916      -15.6996977305
 C        -1.9360063773        1.0811135717      -20.7146148803
 C         0.1957224144        0.3839974984      -22.0527157416
 C         4.5361236919        3.4547835531      -17.5163751085
 C         5.3507113598        4.1649149889      -19.7448945886
 C         5.1621213259       -2.7851785187      -18.2670868375
 C         6.8496363235       -2.9352816128      -20.2043699377
 H         4.6884653940       -4.9632753358      -22.4001407417
 H         4.5325760537       -5.9445932258      -20.9907929528
 H         6.1027394442       -5.1922239999      -21.4669629369
 H         6.2168651776       -0.2167133660      -21.5892568189
 H         6.5658724895       -0.0064181087      -19.8872014924
 H         4.0994109609        1.0176278285      -21.2405273279
 H         5.6553651513        2.0011223560      -21.2106234739
 H         1.1103044392        3.8813324199      -18.0645870725
 H         1.8763289160        2.3573430011      -17.6677965513
 H         0.4392775392        2.7281370292      -20.4302929677
 H        -0.4686924317        2.6265452891      -19.0150713151
 H        -2.7458689472       -1.3737621048      -19.6237140744
 H        -1.5341322805       -0.8989125422      -18.5155832184
 H        -1.8382422153       -3.7960642970      -19.7035946540
 H        -2.7682863798       -3.1357290753      -18.3545912142
 H        -1.5393499204       -4.0824349068      -13.6619874926
 H        -2.8482438748       -5.1571108570      -14.3614807017
 H        -4.5742817137       -3.8129508629      -13.7302741317
 H        -3.8112903667       -2.3720588723      -14.1450526281
 H        -4.5791164961       -4.4912188374      -10.1469108439
 H        -4.8403075909       -4.0101594896       -8.5159189163
 H        -1.9915688854       -4.2978363731       -9.4506789638
 H        -2.8202523635       -5.8265990008       -9.0194321864
 H         0.7390115553       -3.1214423524       -5.3681575547
 H        -0.6325620070       -2.5696484987       -5.9973630812
 H         0.2212333184       -1.0857474625       -7.6487747361
 H         1.8778464131       -1.6042114733       -7.6995002680
 H         0.2278631079        1.3033122391       -3.3498185429
 H        -0.4228653429       -0.2383211800       -4.0330158157
 H        -2.2818880438        2.1957251774       -3.9465116113
 H        -2.0795448033        0.9671544258       -2.6381725427
 H        -6.6592315206        2.2278477915       -4.4539393582
 H        -7.4559394643        0.9410729154       -4.0004059486
 H        -7.4743584122        1.6507962277       -6.9288877296
 H        -8.7549051966        1.9863114023       -5.7855691354
 H        -9.3363204356       -3.1421064645       -8.0785978903
 H        -8.8692729900       -2.7060860248       -6.3960425312
 H        -6.7678336899       -3.9657656022       -8.1410551497
 H        -8.0374964758       -5.1419612975       -7.4728842350
 H        -8.6938528399       -4.4636716600       -2.7965782687
 H        -8.8491345757       -6.2535084802       -2.7052027060
 H       -10.7757794865       -5.1744662004       -2.0496579621
 H       -11.0323528346       -6.1935987750       -3.5508052516
 H       -12.9347695727       -0.6382493613       -2.1266943537
 H       -11.5231159805       -1.2172535609       -2.7568216489
 H       -10.6194295009       -1.7133973181       -0.3142503712
 H       -12.3038978653       -1.3117511081        0.1905328628
 H       -10.4864521924        4.2449413089        1.3673445875
 H       -11.6098931059        2.8857893946        1.4896852391
 H       -10.9711899421        3.5190308266       -0.1969426820
 H        -9.6670808540        0.5652872926        3.0295286388
 H       -10.6895940226       -0.7149945610        2.3184753903
 H       -11.2819205425        0.8425853152        2.4816984817
 H        -8.5981774010       -1.1021720010        0.6570786650
 H        -7.6674719562        0.3970324569        0.8567011308
 H        -8.4501102200        0.0463929349       -0.6945111117
 H       -13.2868346441       -2.9004511265       -5.3931930840
 H       -12.5640266097       -1.5861873525       -4.4214953748
 H       -14.1967533078       -2.1028705213       -4.1908231164
 H       -14.7245343768       -4.6543637677       -3.1981829876
 H       -13.5023107383       -5.3002458739       -2.3046540767
 H       -13.5234115245       -5.4404750375       -4.1238549009
 H        -7.6587076070       -6.9526540546       -6.6294654912
 H        -6.5756615168       -7.6065571048       -5.3366497852
 H        -5.9842343383       -6.5083388253       -6.5714567648
 H        -5.2125965184       -5.1113178466       -4.1333646906
 H        -6.3019928082       -6.2934829983       -3.3395455391
 H        -6.5284671817       -4.4955251186       -3.1878117057
 H       -10.7536019042       -1.2630274447       -8.7254140041
 H       -11.1228624167       -0.2330356502       -7.4652538160
 H       -10.6104830452       -1.8530611102       -7.1103348058
 H        -7.8795928722        1.1879155065       -8.8701190756
 H        -9.7021133868        1.2062962604       -8.8762941371
 H        -8.9699363628        0.1045562764       -9.7996238996
 H        -6.1075178317       -1.1225938560       -3.2600358649
 H        -4.7030093623       -0.9711548097       -2.1072091378
 H        -4.3568828400       -1.7500118453       -3.7002687995
 H        -4.3796087384        1.2306191212       -1.8491807719
 H        -5.9421309416        1.5806909231       -2.5146677033
 H        -4.5136289086        2.5514970223       -3.0605005077
 H         3.1581361363        1.7045138463       -6.1520413746
 H         2.6595017578        1.3303683015       -4.6486724709
 H         1.8521748990        2.8439235296       -5.4123608736
 H         0.0102304025        1.1770273873       -8.1373622799
 H         1.8708202021        0.9919248732       -8.1585141084
 H         1.0705057532        2.4689229093       -7.6760996005
 H        -0.0486050776       -5.2750439786       -4.9508280408
 H        -1.4515892186       -6.2677550385       -5.2602655574
 H        -1.5438257886       -4.3865722077       -4.9954845535
 H        -0.0173493892       -6.0770937820       -8.5711494571
 H        -1.4376554039       -6.9053618646       -8.1046854599
 H         0.0161440066       -7.0145238636       -7.1290689985
 H        -3.1938395453       -0.2699684564      -12.3158086072
 H        -1.8715635966       -1.1635489965      -11.4522365692
 H        -3.0561467449       -0.1760427368      -10.6476201802
 H        -5.4060935714       -0.9262455045      -12.4468694995
 H        -5.8138109415       -1.1528621914      -10.7546917982
 H        -5.8907628935       -2.5099720045      -11.7477364519
 H        -3.3132651947       -5.0247783554      -17.5089631534
 H        -2.6243561826       -6.3599880424      -16.5570232165
 H        -2.0331111490       -5.9239721405      -18.1308201249
 H         0.2633468566       -5.7968440105      -16.2553888769
 H        -0.6705929616       -5.5457618551      -14.8074266682
 H         0.3383740416       -4.1879575520      -15.3149739646
 H        -2.5766460397        0.3062752705      -21.0084881918
 H        -2.0039450589        1.8122046213      -21.4250745424
 H        -2.1910555458        1.2066938151      -19.6282936805
 H         0.3610813155        1.5051254767      -22.2320954961
 H        -0.4675372304       -0.0138105250      -22.8503509160
 H         1.1317062701       -0.0742428931      -22.2330511807
 H         4.8485885289        2.4814999399      -17.0107779557
 H         3.7674638441        3.9586407376      -16.8791350722
 H         5.4704216959        3.9552290891      -17.2562797985
 H         5.1817100668        5.2180343373      -19.5610803831
 H         5.4120273582        4.0228060515      -20.7961661174
 H         6.3890445237        4.0404850480      -19.4147300846
 H         5.9083245576       -2.1708097967      -17.7762000883
 H         5.1931902781       -3.8100465287      -17.8459138065
 H         4.0992076737       -2.5038624788      -18.0828578119
 H         6.8962357353       -3.1356562247      -21.2579487743
 H         7.2758486297       -3.7662062974      -19.6480635496
 H         7.6080938163       -2.1894875195      -20.0550206527
 Na        1.5777682475       -2.2582199248      -19.5540587333
 Na       -4.2794762295       -1.8987235892       -6.7155474405
