232

 C         5.0687424285       -4.6673616526      -21.3226525794
 C         4.3951919412       -3.7614619342      -20.3689499690
 O         3.2242286040       -3.8461379459      -20.2348539790
 C         5.2591555210       -2.5869933804      -19.7371999322
 C         4.5798650895       -1.2582778521      -20.3004330729
 O         3.3675416278       -1.1794228243      -20.5214511040
 C         5.5581878312       -0.1690251351      -20.5827393688
 C         4.9101732040        1.2731710915      -20.5615745396
 C         4.6135278526        1.7397879681      -19.1109647991
 O         4.4136860665        0.8841271606      -18.2418243002
 C         4.2340283304        3.2277118320      -18.8687281264
 C         2.7446282664        3.3308288483      -19.4728713940
 O         2.7022186141        3.7463379320      -20.6319044842
 C         1.5820251584        2.9549465000      -18.6316687072
 C         0.3794114540        2.4368680944      -19.3767209773
 C         0.4787645331        0.9019612136      -19.6954225100
 O         1.3089039850        0.1995907468      -19.1259780668
 C        -0.4550466502        0.3633501595      -20.7262719029
 C        -0.6458304250       -1.2498126604      -20.3736244107
 O        -0.4302989267       -2.1659971497      -21.1642627774
 C        -1.6205579592       -1.5639971522      -19.1591476345
 C        -1.8406606086       -3.1086496559      -18.9434648473
 C        -0.9122883376       -3.6829176403      -17.7865138421
 O         0.2720402375       -3.5732964749      -17.9806030260
 C        -1.5039086235       -4.6614965709      -16.6579777737
 C        -2.4764628026       -3.7902635504      -15.8091799445
 O        -2.9172077357       -2.7861182635      -16.3500389079
 C        -2.7052118329       -4.2078535395      -14.3042628335
 C        -3.5162084425       -3.0984573380      -13.6068540265
 C        -3.2503891806       -3.1146648616      -12.0725643227
 O        -2.5419574783       -3.9443952012      -11.5502080219
 C        -3.8469176764       -1.9701878437      -11.1030774243
 C        -3.7135815199       -2.4484813307       -9.6028525202
 O        -3.4061103106       -1.6605384332       -8.7238545104
 C        -4.0518471323       -3.9249028343       -9.3471008341
 C        -2.8956597357       -4.8656155749       -8.8418029659
 C        -2.4445205648       -4.7599106840       -7.3493178182
 O        -3.0996941851       -4.0959549100       -6.5436160551
 C        -1.0053937980       -5.1001670787       -7.0028383100
 C         0.0007966705       -3.8558482686       -7.4408307749
 O         0.3377586709       -3.7796590769       -8.5992020225
 C         0.4927768849       -2.8894571484       -6.3147368181
 C         1.1364617664       -1.6861759880       -6.9526257251
 C         1.5658551428       -0.5452943741       -5.9938678025
 O         1.9903973701       -0.8478526216       -4.9174922175
 C         1.1259104093        0.9267342487       -6.2796142264
 C        -0.3168935105        1.3025568757       -5.6060816295
 O        -1.0800145197        1.9633507614       -6.2105791331
 C        -0.7081927733        0.8542778774       -4.1212522006
 C        -2.0976016552        1.2536923299       -3.7500251538
 C        -3.0461470345        0.0618716080       -4.0281709730
 O        -2.6474894944       -0.9414995466       -4.5772415817
 C        -4.5886870783        0.2583143095       -3.7812105435
 C        -5.4475461305        0.5580809369       -5.1870478312
 O        -4.8998402507        0.3245615707       -6.2471573894
 C        -6.8934192126        1.0583506518       -4.9761484991
 C        -7.6840083387        1.1598846082       -6.2855837125
 C        -8.7036835720       -0.0516533328       -6.3830653286
 O        -8.8734900892       -0.7357307792       -5.4173712515
 C        -9.2749937969       -0.4969367484       -7.8086782169
 C        -8.1231097175       -1.6916294716       -8.0040663213
 O        -7.1678153808       -1.3694988612       -8.6321370784
 C        -8.4452916616       -3.1014813150       -7.4776846516
 C        -7.1935939209       -3.9959355717       -7.4199526984
 C        -6.6593096101       -4.1798229019       -5.9833450468
 O        -5.8916235890       -3.3307543706       -5.5722386808
 C        -6.9917276810       -5.3588876970       -4.9991233924
 C        -8.5823430092       -5.2810784219       -4.7325807737
 O        -9.2612691124       -5.4840680793       -5.7124210889
 C        -9.1004754980       -5.0595948843       -3.2992562630
 C       -10.6764711986       -5.1932274555       -3.1662405583
 C       -11.2727442093       -3.9097161049       -3.6905675656
 O       -10.4977695511       -3.0662884406       -4.1309851440
 C       -12.8417618590       -3.5507633535       -3.3151989330
 C       -12.7474354146       -2.7801191887       -1.9528203998
 O       -13.2301917346       -3.2439125252       -0.9613480180
 C       -11.9384416345       -1.4113243678       -1.8209910684
 C       -11.6615032058       -0.9568606299       -0.3968020698
 C       -11.0388289406        0.4668080322       -0.4566187953
 O       -11.3793296938        1.3186954646       -1.2545531649
 C        -9.9113939492        0.8091690254        0.6234494879
 C        -9.4343874102        2.2771036072        0.7554584991
 O        -8.3035816429        2.6319180687        0.4490350417
 C       -10.4908004747        3.2977896735        1.2605860494
 C       -10.4126539930        0.3726652144        2.0168585075
 C        -8.5577521665       -0.1054320737        0.3548069607
 C       -13.3412361239       -2.7648212882       -4.5070553696
 C       -13.7269133951       -4.8529082792       -3.1124909566
 C        -6.7442478579       -6.6791711987       -5.7792245962
 C        -6.0135071483       -5.3758987366       -3.7328832226
 C       -10.6915040908       -1.0828620299       -7.7824418742
 C        -9.1415223005        0.6448856784       -8.9787708091
 C        -5.0660090808       -1.0472803078       -3.1183963016
 C        -4.8460256122        1.4358939855       -2.8702543366
 C         2.0355163420        1.8671726782       -5.4941923979
 C         1.1312394259        1.2611202711       -7.8099266222
 C        -0.8780855992       -5.3370400464       -5.4735758258
 C        -0.4364814759       -6.3425589987       -7.7545224856
 C        -2.7976321985       -0.7428207398      -11.2891311655
 C        -5.1801603661       -1.4400578502      -11.6636317646
 C        -2.2280744548       -5.8989668969      -17.3340838288
 C        -0.2940453925       -5.3257033711      -15.9101633353
 C        -1.8098667839        1.1452950779      -20.7713059232
 C         0.3263713558        0.5115899614      -22.0371638995
 C         4.2661376933        3.4651251740      -17.2974038800
 C         5.0810777318        4.2831998700      -19.6834792985
 C         5.1995406929       -2.6364821325      -18.1808412413
 C         6.7300329542       -2.7020624079      -20.1707537659
 H         5.4833023143       -4.1032154639      -22.1748142440
 H         4.3610788532       -5.3445630491      -21.6892432786
 H         5.9288771210       -5.1506127980      -20.9742058994
 H         6.1001477888       -0.3499248787      -21.5189979287
 H         6.2960189109       -0.2613760947      -19.7453046253
 H         3.8934992243        1.1986928278      -20.9528003129
 H         5.4171875406        1.9257772728      -21.1805527817
 H         1.3387989412        3.8652742579      -18.0757224777
 H         1.9107921486        2.2135730682      -17.8815647412
 H         0.1544707773        2.9283465915      -20.3083526692
 H        -0.5330337042        2.7458762974      -18.8144063197
 H        -2.6182644595       -1.2009815911      -19.3746871158
 H        -1.1996420822       -0.9456460050      -18.3064431321
 H        -1.5010213996       -3.5768894639      -19.8432698915
 H        -2.9340185831       -3.3912385015      -18.8044061238
 H        -1.8031669717       -4.3366927084      -13.7533277538
 H        -3.3440299272       -5.1113792012      -14.1991704667
 H        -4.6279412762       -3.0467683081      -13.8408987052
 H        -3.3478211685       -2.0103486059      -13.8776427928
 H        -4.5787573374       -4.3614895146      -10.2438829649
 H        -4.7582417123       -3.9910183803       -8.4726090445
 H        -1.9723785461       -4.6960811009       -9.4238359365
 H        -3.2093711061       -5.9147792907       -8.9818695190
 H         1.0909424146       -3.2604555042       -5.4778956860
 H        -0.3871363967       -2.6436514788       -5.6986247530
 H         0.4398937264       -1.1931943825       -7.5956880545
 H         1.8782986841       -2.0214445548       -7.5893831886
 H        -0.0321143075        1.3092117465       -3.4180498635
 H        -0.5406008441       -0.2098698551       -4.1271838296
 H        -2.3356045370        2.0211777767       -4.4952357208
 H        -2.0298273087        1.5502091588       -2.6444398075
 H        -6.8239448034        1.9858071453       -4.4051104126
 H        -7.3961372499        0.5231264894       -4.1413614533
 H        -6.9278837876        1.1096657237       -7.0997295935
 H        -8.1817439752        2.0802563627       -6.4531130409
 H        -9.2603554033       -3.4993360287       -8.1323777515
 H        -8.7799832278       -2.8754028406       -6.4772995261
 H        -6.3805056143       -3.5321371611       -7.9571771763
 H        -7.5063121835       -4.9503116112       -7.7346007850
 H        -8.7552197826       -4.0025070610       -2.9536206953
 H        -8.5879715293       -5.9089224647       -2.7666647607
 H       -10.8532627394       -5.3818732864       -2.1260095564
 H       -10.9423844139       -6.0286820993       -3.7924859719
 H       -12.5688686501       -0.7176698806       -2.4003786335
 H       -11.0897812419       -1.2834745152       -2.4832697785
 H       -10.9609114057       -1.5588037171        0.1448863779
 H       -12.6102260909       -0.9283680347        0.1715353233
 H        -9.9258863434        3.8489221430        2.0902883760
 H       -11.4084492701        2.8829978199        1.6569122817
 H       -10.6594089094        4.0587940748        0.5203769042
 H       -10.1135171350        1.1336730848        2.7807160647
 H       -10.1104024108       -0.7070266134        2.3073505188
 H       -11.5238291626        0.3797866504        2.1849873247
 H        -8.7880985506       -1.1928898177        0.2028170133
 H        -7.8631216860       -0.0779756994        1.1375791045
 H        -8.0515481320        0.1635409653       -0.5935613016
 H       -13.8318523354       -3.4737300311       -5.2119179442
 H       -12.5443357715       -2.2070458545       -4.8872807166
 H       -14.1397768188       -2.0454490966       -4.3390144666
 H       -14.7640441688       -4.5279399756       -2.6578915765
 H       -13.4562782694       -5.6263315449       -2.3185454455
 H       -13.8481783629       -5.2395712769       -4.1652837102
 H        -7.5288296183       -6.8362465918       -6.5234249182
 H        -6.8320041242       -7.5076341163       -5.0828231302
 H        -5.7311460396       -6.8104371282       -6.2626642931
 H        -5.0231556194       -5.5562793925       -4.0933369813
 H        -6.2954161471       -6.0861941532       -2.9461390913
 H        -6.0150795341       -4.3236615903       -3.3945836108
 H       -10.8348792666       -1.9162423520       -8.4868427731
 H       -11.4966133474       -0.3455358459       -8.0021352013
 H       -10.9310387981       -1.3614212656       -6.7250115461
 H        -8.1281529458        0.9777033827       -9.0593523806
 H        -9.8649462799        1.4524544074       -8.7797138584
 H        -9.4925406145        0.2490220054       -9.9406731074
 H        -6.1453627598       -0.8880418142       -2.7941243919
 H        -4.4525257659       -1.2947681776       -2.2814492122
 H        -4.8893270208       -1.8309704198       -3.7622631217
 H        -4.0667236805        1.5704907197       -2.1742455398
 H        -5.7679029065        1.3068183554       -2.2864308119
 H        -4.7900478294        2.2680155745       -3.4783754200
 H         3.0452553308        1.9088323299       -5.9624037598
 H         2.3405588375        1.3782348596       -4.5601598897
 H         1.5313432032        2.8222116596       -5.3717541023
 H         0.5475691654        0.4574074552       -8.3138311086
 H         2.1264157445        1.2449555187       -8.1778061720
 H         0.5595499090        2.1502814829       -8.0210750989
 H         0.1518229000       -5.7374134724       -5.2084805543
 H        -1.4738824314       -6.1417852805       -5.1238222853
 H        -1.0366402289       -4.4495921546       -4.9561585768
 H        -0.2049035803       -6.0729068277       -8.8753399678
 H        -1.1826741205       -7.1686038941       -7.7479024819
 H         0.4957845288       -6.5985636088       -7.1618778243
 H        -2.8716922692       -0.3964763173      -12.2814303809
 H        -1.8086708953       -1.2373368750      -11.0650399261
 H        -2.9730194336        0.1378411412      -10.7026020203
 H        -4.8827450627       -1.0443752910      -12.6751022881
 H        -5.5470454980       -0.5340997812      -11.1324576274
 H        -5.9784203029       -2.2208594153      -11.6859909614
 H        -3.2732049409       -5.7636603348      -17.6716046769
 H        -2.0570933922       -6.8049366379      -16.7244179419
 H        -1.6848101563       -6.1281540396      -18.3256263114
 H         0.3636049551       -5.5967157612      -16.7169037730
 H        -0.5801454779       -6.1970637118      -15.3586302950
 H         0.2021778014       -4.6329932125      -15.2473426586
 H        -2.4420678254        0.6584235374      -21.5775120848
 H        -1.4006960836        2.1629697333      -21.1525736137
 H        -2.2596912767        1.1021252488      -19.8303564728
 H         0.9233805542        1.2802979331      -22.2606815757
 H        -0.2860295653        0.2147924952      -22.8396196213
 H         0.9433046918       -0.4633593134      -22.0238780234
 H         4.9892195070        2.9075581658      -16.8069140289
 H         3.3179858423        3.2644286099      -16.8467746027
 H         4.5587616487        4.4637266149      -16.8868007890
 H         4.9094949410        5.3644353404      -19.4805868885
 H         5.0792653543        4.1702678864      -20.7813213473
 H         6.1612961350        4.2015399874      -19.3788654078
 H         5.8027406882       -1.7434113809      -17.8557897392
 H         5.5866532060       -3.5888073252      -17.8807910178
 H         4.2510314312       -2.6130144322      -17.7502890730
 H         6.9897739912       -2.2788744425      -21.1732441889
 H         7.2692026402       -3.6632144232      -19.9747769279
 H         7.3084671229       -2.0000879111      -19.5317037844
 Na        1.7582233136       -2.3187504471      -19.2206005730
 Na       -4.2037793476       -2.0917678813       -6.4218681614
