232

 C         4.8679211616       -4.5419725678      -21.4364775224
 C         4.3011036572       -3.7504339068      -20.2350474003
 O         3.2341251887       -3.9930340958      -19.7209631765
 C         5.0920603217       -2.4477411728      -19.7357550563
 C         4.5155898688       -1.1159995609      -20.4188487832
 O         3.3032593875       -1.0302700922      -20.5798764182
 C         5.3922079202        0.0720200296      -20.7545650977
 C         4.7844075562        1.4728226642      -20.4445469086
 C         4.3850012517        1.8192111612      -18.9910111673
 O         4.0899228745        0.9120540527      -18.2064402818
 C         4.0333860720        3.3354086120      -18.6506923101
 C         2.5641901862        3.4594577951      -19.2693440448
 O         2.4610610535        3.7559360070      -20.4493916966
 C         1.3918842711        2.9033665385      -18.4714680700
 C         0.2639944920        2.3203658537      -19.2857696616
 C         0.3349491066        0.8254740966      -19.7271232187
 O         1.1401026634        0.1469921945      -19.1486784072
 C        -0.5627426937        0.2262685703      -20.8528472112
 C        -0.6738447390       -1.2441275641      -20.4210159554
 O        -0.3129026948       -2.2053715859      -21.1162639743
 C        -1.5116285263       -1.4695770381      -19.0957978260
 C        -1.7280086658       -2.9942913950      -18.9817009010
 C        -0.8704579955       -3.7442605771      -17.9515145952
 O         0.2998743052       -3.5538739138      -17.7987601744
 C        -1.5866383629       -4.6993606268      -16.9265480029
 C        -2.7363799529       -3.9396254819      -16.1475682756
 O        -3.5757279885       -3.2357541790      -16.6477069259
 C        -2.7492527248       -4.2148882860      -14.5284289846
 C        -3.0642324721       -2.9368916733      -13.6842880010
 C        -2.9343641489       -3.1643355769      -12.1246176017
 O        -2.2787209889       -4.1064963929      -11.6880651984
 C        -3.4741627903       -2.0442605657      -10.9743760845
 C        -3.5969809671       -2.4835563948       -9.3962537845
 O        -3.6131513074       -1.5630165476       -8.5806491411
 C        -3.9893485196       -3.9160636265       -9.1211942942
 C        -2.6495181844       -4.6791617019       -8.7482985851
 C        -2.4139242171       -4.8003638586       -7.2679775416
 O        -3.1803049306       -4.3458801674       -6.4232586250
 C        -0.9587234938       -5.1976907555       -6.9342980682
 C        -0.0006953669       -3.8401064638       -7.3638748813
 O         0.1204547329       -3.6011863636       -8.5407013608
 C         0.5340934291       -2.8908423241       -6.3772984503
 C         1.1066643205       -1.6219717257       -6.9700330657
 C         1.5117915336       -0.5317322942       -5.9714213437
 O         2.1871734318       -0.7472464840       -4.9829688864
 C         1.2123606612        0.9982600681       -6.3504201439
 C        -0.3538094839        1.2657658790       -5.7927588874
 O        -1.1164595685        1.8356927043       -6.4815186034
 C        -0.6928629490        0.6789181229       -4.3814868721
 C        -2.1185418496        1.0825463690       -3.8242824245
 C        -3.0858130315       -0.1109619900       -4.0082883440
 O        -2.7274691589       -1.2080137710       -4.4190305189
 C        -4.6407510252        0.2194580394       -3.6589579736
 C        -5.2208164467        0.4332398271       -5.1670238474
 O        -4.6820063326        0.1803479352       -6.2171006928
 C        -6.6189496417        1.0053219291       -5.3149312228
 C        -7.2761636553        0.6457604129       -6.5942820672
 C        -8.6528630105       -0.0578121926       -6.3476605495
 O        -8.9801203046       -0.4533742015       -5.2781499410
 C        -9.2900671164       -0.6092038068       -7.6973613208
 C        -8.2903189928       -1.8117131599       -8.0472052791
 O        -7.3814762253       -1.5445004147       -8.8253449190
 C        -8.4688835791       -3.1131592958       -7.3321929859
 C        -7.2294990856       -3.9971724151       -7.2558234222
 C        -6.5001215633       -4.0725531265       -5.9015469197
 O        -5.7608331603       -3.1867610021       -5.4260579379
 C        -6.9532299026       -5.2558311192       -4.9949079682
 C        -8.4979356683       -5.1990977141       -4.8141334395
 O        -9.2394283567       -5.3263339733       -5.7529899858
 C        -9.0738240884       -5.1263708088       -3.4346358841
 C       -10.5300910336       -5.0558137944       -3.3210124931
 C       -11.1943558248       -3.7647253184       -3.8147087134
 O       -10.5934877246       -2.8401906726       -4.3929986988
 C       -12.6017995758       -3.6893893980       -3.2803438945
 C       -12.5227338986       -2.7356215488       -1.8230539565
 O       -13.0669572259       -3.0732193865       -0.8434143926
 C       -11.7942237633       -1.3504905986       -1.9320248484
 C       -11.7754722531       -0.6636754508       -0.6345785853
 C       -10.9395400602        0.6271431993       -0.6136775029
 O       -10.8921665092        1.3961570766       -1.5570256616
 C        -9.8860133100        0.7209948253        0.5588299661
 C        -9.4250009123        2.1549433074        0.5730820143
 O        -8.4125796942        2.4621316013       -0.0301143339
 C       -10.1116139394        3.1655573527        1.4716955910
 C       -10.5657797465        0.3298992347        1.9441780308
 C        -8.7024732889       -0.1592264424        0.1570062424
 C       -13.4805585713       -2.7264842114       -4.2083113258
 C       -13.3450745461       -4.9910257026       -2.9510876442
 C        -6.5654744259       -6.5008537376       -5.7374970370
 C        -6.1466002906       -5.2452620673       -3.6505677551
 C       -10.7530507744       -1.1544884385       -7.4289016060
 C        -9.3314424790        0.3546368632       -8.9316270098
 C        -5.4233035323       -1.0143315226       -3.0682718375
 C        -4.7756217149        1.4636441822       -2.7326895935
 C         2.1391718432        1.8222645738       -5.4302147258
 C         1.3616046985        1.2973330260       -7.9069659611
 C        -0.8991806980       -5.5222154585       -5.4556015356
 C        -0.4799370245       -6.4472847615       -7.7921209839
 C        -2.5159471810       -0.7820579650      -11.0245300628
 C        -4.9205869557       -1.5992873954      -11.1954704799
 C        -2.2984270262       -5.8367594314      -17.6482833267
 C        -0.4388047447       -5.4049439298      -16.1041964949
 C        -1.8498390840        0.9557699362      -21.0535855437
 C         0.2176066261        0.2319170753      -22.1539326789
 C         3.8745057073        3.7097409179      -17.1438945346
 C         5.1196598151        4.3169083851      -19.4079246456
 C         4.7369809310       -2.2100701517      -18.1789787072
 C         6.6226850861       -2.4590048736      -19.9456869551
 H         5.9796995627       -4.7520119755      -21.3571026005
 H         4.5861338957       -4.0373294290      -22.3521248327
 H         4.4458221100       -5.5776867037      -21.5161495487
 H         5.8450693238        0.0011173519      -21.7442848072
 H         6.1593234455       -0.0217272730      -20.0440409002
 H         3.6878228688        1.6038240959      -20.8526955842
 H         5.3556307602        2.1711931212      -20.9893587697
 H         0.9828672663        3.7185600451      -17.8412488478
 H         1.8483880239        2.1621810200      -17.8186578747
 H         0.0043702520        3.0101887950      -20.0860833984
 H        -0.7268827101        2.4102851560      -18.7684289703
 H        -2.4826136324       -1.0303704652      -19.3587828854
 H        -1.2283261200       -1.1776894023      -18.0986790874
 H        -1.4315982084       -3.4156932903      -19.9701406903
 H        -2.7527972552       -3.3357814708      -18.8278222574
 H        -1.7132361392       -4.4562939943      -14.1186867360
 H        -3.5554206903       -5.0013077081      -14.4051687586
 H        -4.0417647755       -2.4910902592      -13.8365865391
 H        -2.6040542029       -2.0713335630      -13.9700525705
 H        -4.4266565531       -4.4778320458       -9.9174064438
 H        -4.6097932222       -3.8834401213       -8.2692165477
 H        -1.8452540978       -4.1414918335       -9.2820849852
 H        -2.6571105093       -5.6274700530       -9.2693177600
 H         1.1525382117       -3.5686743336       -5.6948536860
 H        -0.2523803816       -2.5719511259       -5.6970134796
 H         0.3291870267       -1.1981800061       -7.7245017657
 H         2.0524694739       -1.7941113638       -7.5243905556
 H         0.1085241982        1.0217473375       -3.7273976381
 H        -0.6217340179       -0.4857069696       -4.5368067386
 H        -2.5640928331        1.8990200034       -4.4062820445
 H        -2.0043786139        1.2308137314       -2.7904897319
 H        -6.6805120395        2.1095059789       -5.2163276594
 H        -7.1987557427        0.7918102365       -4.4759372205
 H        -6.6502498526       -0.0486019900       -7.1346823165
 H        -7.2784090671        1.5161628066       -7.3206608038
 H        -9.2389854374       -3.6642409826       -7.8769752930
 H        -8.7924837521       -2.7433415766       -6.3200267081
 H        -6.4559415658       -3.5973279329       -7.9135656580
 H        -7.6489473272       -4.9736755161       -7.5191537126
 H        -8.6639424644       -4.2970076668       -2.9147107495
 H        -8.5963520039       -6.0045346651       -3.0648298345
 H       -10.8231163076       -5.2996764737       -2.2935299332
 H       -10.9261993204       -5.8800948085       -3.9685272946
 H       -12.0640668256       -0.7963044760       -2.7792912295
 H       -10.8080402994       -1.5786266962       -2.2759366161
 H       -11.4419737042       -1.3031458986        0.1967616507
 H       -12.8081211896       -0.4412456269       -0.3335122430
 H        -9.8762295713        3.1335964087        2.5938654075
 H       -11.1360677266        3.1995042822        1.0961793535
 H        -9.6831563521        4.1387279440        1.1319907072
 H        -9.8657992468        0.1935989515        2.7393849870
 H       -10.9853290186       -0.6657848798        1.8877648314
 H       -11.1960439102        1.0906903510        2.2703654181
 H        -8.8818635871       -1.1302184977       -0.3332245680
 H        -8.0906036495       -0.3226008480        1.0066896618
 H        -8.1872026506        0.3291985307       -0.6812470945
 H       -13.7577460318       -2.9662964416       -5.2185561812
 H       -13.1323752844       -1.7553979466       -4.0594006644
 H       -14.5132693283       -2.7197764841       -3.7424051824
 H       -14.3963136084       -4.7332844902       -2.7716298103
 H       -12.9673027172       -5.4074700231       -2.0669393267
 H       -13.1315696271       -5.7675842302       -3.6096019771
 H        -6.9618794768       -6.5407662814       -6.6913362271
 H        -6.8889563483       -7.4456378702       -5.2950847177
 H        -5.4488067062       -6.5580519904       -5.7247424568
 H        -5.0977091815       -5.0533763597       -3.8878926914
 H        -6.1862686009       -6.1981014760       -3.1854378596
 H        -6.6120899830       -4.4934015912       -2.9737130181
 H       -11.0535687553       -1.6635846410       -8.2966508525
 H       -11.4099230501       -0.4052814512       -7.1496386428
 H       -10.8256281663       -1.7569572405       -6.5151915515
 H        -8.3717662478        0.2524128301       -9.3303021872
 H        -9.5041714549        1.4272072759       -8.6022868440
 H       -10.0182298704        0.0603501347       -9.7142726690
 H        -6.5168858618       -0.5891252921       -2.9598662166
 H        -4.9186435538       -1.3513087458       -2.1162791025
 H        -5.3583280094       -1.8172655572       -3.8104149224
 H        -4.6241394964        1.2072739010       -1.6406696750
 H        -5.8464738181        1.7146699601       -2.8560464427
 H        -4.0948989405        2.2286646342       -3.0140736827
 H         3.2790086789        1.6903921138       -5.5932430986
 H         1.8269083092        1.6151555495       -4.3688244355
 H         1.9965186284        2.8716419415       -5.6320385605
 H         0.5550701217        0.8504195341       -8.4399077480
 H         2.2413533067        0.7759282321       -8.2275735104
 H         1.3057935121        2.4205412819       -8.0708273207
 H         0.1548038877       -5.7545030145       -5.1191695006
 H        -1.4085687320       -6.4622725312       -5.1243982786
 H        -1.3568117666       -4.7360393214       -4.8926948783
 H        -0.7564859209       -6.4052989678       -8.8430043013
 H        -0.9569469870       -7.2668022622       -7.4269130029
 H         0.5635282729       -6.5939954138       -7.6889230626
 H        -2.3859910401       -0.4410532641      -12.0218900460
 H        -1.5652608445       -1.1404952099      -10.6115424456
 H        -2.9170147486        0.0663963649      -10.4217522454
 H        -4.8865763028       -1.1158499536      -12.1154449845
 H        -5.1953914025       -0.7778090999      -10.5392186783
 H        -5.6133459432       -2.3985000440      -11.2058228973
 H        -2.6312135825       -5.7115162649      -18.6065565783
 H        -3.0528030999       -6.2372716359      -16.9872414817
 H        -1.5796723190       -6.6325740987      -17.6121455043
 H         0.2015974747       -5.9419433247      -16.8294285612
 H        -0.8739800812       -5.9951222564      -15.3013218667
 H         0.2635460170       -4.6337178133      -15.7120146526
 H        -2.2616161418        0.2963021364      -21.8052365114
 H        -1.5173804194        1.9539569485      -21.4428376021
 H        -2.4513222155        1.0997735449      -20.2546500649
 H         0.2918800281        1.1909554379      -22.5627669050
 H        -0.0723291262       -0.5136799261      -22.9097317423
 H         1.3356019439        0.0008849203      -21.9292140167
 H         4.4876226136        4.5437121531      -16.7641375247
 H         3.8820680602        2.9136930595      -16.3513229539
 H         2.8226589869        4.1533973583      -17.0133572763
 H         5.0874674319        5.2933022234      -18.9908009762
 H         4.7986867229        4.6280156243      -20.4119339518
 H         6.1333588606        4.0481028349      -19.4465152397
 H         4.6499692026       -1.1431360245      -18.0033223939
 H         5.4982496278       -2.7903393480      -17.6523472677
 H         3.7805438680       -2.6661175115      -17.8121052680
 H         6.9691974202       -2.5440930514      -20.9620038912
 H         7.0210195128       -3.3177998852      -19.4593064854
 H         7.0886978232       -1.5056033719      -19.6037028685
 Na        1.7406419973       -2.1277507050      -19.2747196997
 Na       -3.8111218740       -1.9521859383       -6.3094520349
