232

 C         4.7924498380       -4.2450039684      -21.2558927766
 C         4.1400221923       -3.4245178403      -20.1812205881
 O         3.0629436781       -3.7816191320      -19.6548380576
 C         4.9577213199       -2.2346179966      -19.6194326707
 C         4.4330850567       -0.9972939481      -20.4041958669
 O         3.2454699255       -0.9660019256      -20.6759122274
 C         5.3780269184        0.2572805822      -20.5189866583
 C         4.5647393629        1.5475497782      -20.4358299478
 C         4.2722647338        1.8502557583      -18.9483783776
 O         4.1959867363        1.0127841805      -18.0885611069
 C         3.7985490624        3.3573080887      -18.6057066793
 C         2.3946706867        3.5263716948      -19.3108467185
 O         2.2082166310        3.8301840520      -20.4664632304
 C         1.1536397763        2.9285667667      -18.4925448089
 C         0.1366915933        2.3162416533      -19.4555382242
 C         0.2685653975        0.8477387586      -19.6878048387
 O         0.9247095768        0.1583835514      -18.9276884100
 C        -0.4988627287        0.1611153455      -20.9450814082
 C        -0.6248357153       -1.3929791207      -20.4501702772
 O         0.0200247008       -2.2151213109      -21.0382324403
 C        -1.6277595098       -1.5972684210      -19.3190277404
 C        -1.9038180009       -3.0534346434      -18.8914942674
 C        -0.9676415371       -3.6574774174      -17.8205167418
 O         0.2358528533       -3.3339534758      -17.7684355642
 C        -1.6553173965       -4.6851362901      -16.8394202921
 C        -2.7860406467       -3.9665009925      -15.8701190138
 O        -3.7251848766       -3.4617115967      -16.4460629565
 C        -2.5895669038       -3.9981690524      -14.3194823191
 C        -2.8110941045       -2.7201833197      -13.5224350891
 C        -2.8431069171       -3.1256432160      -12.0233071888
 O        -2.2778036987       -4.0724658640      -11.5637588697
 C        -3.4544976268       -2.0543456239      -11.1118648035
 C        -3.5082340654       -2.6481759480       -9.6296176286
 O        -3.1687836542       -1.8295518704       -8.7976734603
 C        -3.8591797515       -4.0522402790       -9.2555951645
 C        -2.6411194393       -4.9034618827       -8.8122137369
 C        -2.2058517533       -4.7581242627       -7.3559135786
 O        -2.8954363091       -4.3171018254       -6.4519245943
 C        -0.7761988778       -5.1051759194       -6.8508828309
 C        -0.0469965569       -3.8664551508       -7.3213681448
 O         0.0207293509       -3.6936146600       -8.4904660403
 C         0.4829516847       -2.8153454426       -6.2590955824
 C         0.8284104853       -1.5173487455       -6.9757824014
 C         1.5330041651       -0.5946674611       -5.9537956646
 O         2.1215754055       -1.0328732010       -4.9663697582
 C         1.2996550843        0.9840097573       -6.2982022750
 C        -0.1841694886        1.0891885312       -5.8392474887
 O        -1.1246641837        1.5244679775       -6.5357343738
 C        -0.6498616220        0.5005819970       -4.4222520807
 C        -2.0366107959        0.9808796215       -4.0072078978
 C        -3.0593161125       -0.1251578526       -3.9526826520
 O        -2.7599732417       -1.3009483880       -4.1160717841
 C        -4.5195114826        0.3145479559       -3.6928515610
 C        -5.1431440910        0.4781568601       -5.1765647383
 O        -4.5457841756       -0.0924954145       -6.0938108064
 C        -6.4575305826        1.2364162411       -5.3847506566
 C        -7.2581877719        0.8047559120       -6.6648565384
 C        -8.5441502003        0.0028647775       -6.3437961403
 O        -9.0797497045       -0.0821634369       -5.2459030047
 C        -9.2596469393       -0.6940598343       -7.6564419217
 C        -8.4494496546       -1.9004053983       -8.1312768049
 O        -7.7204594715       -1.9431565820       -9.1154275159
 C        -8.4709725325       -3.1418441907       -7.0822649222
 C        -7.1076273420       -3.9346278962       -7.3127147302
 C        -6.4327133599       -4.0465154154       -5.9497741060
 O        -5.6975462190       -3.1432430565       -5.6077215598
 C        -6.7905944389       -5.2240774261       -4.9987304203
 C        -8.4130969404       -5.2569716367       -4.8048732215
 O        -9.1333785804       -5.5081014642       -5.7407701231
 C        -9.0068439678       -5.0773633614       -3.3749985873
 C       -10.5370491734       -5.1426960981       -3.3520016889
 C       -11.2095179565       -3.7748000389       -3.6834272780
 O       -10.6916906123       -3.1474618674       -4.5440475259
 C       -12.6970762885       -3.5196905517       -3.2335253190
 C       -12.5551782163       -2.6382806168       -1.9443749894
 O       -12.8420515699       -3.1084602730       -0.8537997445
 C       -11.7624128350       -1.2516387649       -2.0416793187
 C       -12.0183796374       -0.3548953450       -0.7769256587
 C       -10.8631425430        0.7089356278       -0.6404627467
 O       -10.6866287884        1.3990004069       -1.5905260451
 C        -9.8146235346        0.6661534653        0.5582762307
 C        -9.2151812584        2.1531916135        0.5139428116
 O        -8.4737236809        2.5378113161       -0.3314756738
 C        -9.8435420282        3.2443929783        1.4071471071
 C       -10.4576794978        0.2737980876        1.8762565127
 C        -8.7555804773       -0.3782531744        0.2630673115
 C       -13.6304670306       -2.7783998329       -4.1972695054
 C       -13.4304339758       -4.8528908515       -2.8843483215
 C        -6.3722641682       -6.5195446166       -5.7249486896
 C        -6.0804374608       -4.9950264465       -3.6451934685
 C       -10.7110226069       -1.1918093726       -7.1467675658
 C        -9.4195959429        0.3753532817       -8.7248098201
 C        -5.2560715208       -0.9917863029       -3.1660955735
 C        -4.8961413309        1.5756322651       -2.8140577887
 C         2.2113108492        1.9286622699       -5.4941037846
 C         1.3399145700        1.2927233298       -7.8452335228
 C        -0.6334484672       -5.3809496655       -5.3924326418
 C        -0.2655184924       -6.2912935737       -7.5950990092
 C        -2.3754153352       -0.9450354597      -11.1813585752
 C        -4.8398214642       -1.5817915128      -11.7571464214
 C        -2.4132474750       -5.6113871658      -17.7859502195
 C        -0.6885723136       -5.4320961708      -15.9382039783
 C        -1.9367525118        0.8535323508      -21.1511738223
 C         0.3630548310        0.2925317236      -22.1693638195
 C         3.9606981658        3.3752901786      -17.0591408469
 C         4.6614970390        4.3944213418      -19.2526869520
 C         4.7651551992       -1.9654191091      -18.0488005709
 C         6.4756938896       -2.5829459155      -19.7703201414
 H         5.2656048076       -5.0649055768      -20.8173479688
 H         5.4975126524       -3.6282110472      -21.8028299266
 H         4.1171457983       -4.6107716902      -22.0134791699
 H         5.8948954194        0.1456037285      -21.4858791375
 H         6.1988242105        0.2104741381      -19.7433225454
 H         3.7648542964        1.5531297222      -21.0754882179
 H         5.1750405831        2.4117175018      -20.8374207163
 H         0.6114256408        3.6824304950      -17.9142097453
 H         1.5843709289        2.1398637870      -17.8446131558
 H         0.0449421902        2.9069481749      -20.4001664827
 H        -0.8714540489        2.5034721739      -19.1035203376
 H        -2.5875164868       -1.2835341839      -19.7437138298
 H        -1.4791176102       -1.0623247339      -18.3806121057
 H        -1.8492472148       -3.6685292430      -19.8034098350
 H        -2.9441434672       -3.1631490008      -18.5101465056
 H        -1.5870385730       -4.2955991060      -14.0894612467
 H        -3.3414736187       -4.6931575296      -14.0052339242
 H        -3.6204620456       -2.1196789989      -13.9716640252
 H        -2.0932056595       -1.8067009953      -13.5701365724
 H        -4.2352449072       -4.6212488232      -10.1350802811
 H        -4.5887409108       -4.0565325402       -8.3793764403
 H        -1.7983127043       -4.5686624144       -9.4191978039
 H        -2.8045339864       -5.9254665369       -9.1871782094
 H         1.2709190428       -3.2414930762       -5.6573499771
 H        -0.3828140619       -2.6126495082       -5.5522384972
 H        -0.0219310355       -1.0636286880       -7.3183148793
 H         1.4966032188       -1.7794785269       -7.7795940269
 H         0.1926733866        0.6882905652       -3.7305206903
 H        -0.7229657800       -0.5086478120       -4.6431438576
 H        -2.4217689736        1.7068144495       -4.7552035470
 H        -1.8749281437        1.3728723375       -2.9501211041
 H        -6.2248584167        2.2886323765       -5.3135472855
 H        -7.1851569786        1.1475963214       -4.5010964538
 H        -6.7042581182        0.2687727684       -7.4569229167
 H        -7.6104912766        1.6637485859       -7.1650163107
 H        -9.3254746988       -3.7754832448       -7.3746226115
 H        -8.5722440900       -2.7729406222       -6.0750659762
 H        -6.4852518727       -3.3204196878       -7.9245698816
 H        -7.3071760976       -4.8923813794       -7.7428242503
 H        -8.5776579111       -4.0624826772       -3.0872775216
 H        -8.3684600735       -5.7748492649       -2.7080702442
 H       -10.8947099025       -5.5620221328       -2.4135404778
 H       -10.8732908853       -5.8980513195       -4.0504797474
 H       -11.9415055091       -0.8139910889       -3.0541594128
 H       -10.6899547912       -1.5281345573       -2.1551330485
 H       -12.1023674050       -0.9533353098        0.1175113789
 H       -12.9659940265        0.1593192389       -0.7628633421
 H       -10.0099423363        2.8110870926        2.3493159223
 H       -10.6346301813        3.8232812855        0.8468386529
 H        -9.0378372074        3.9241979490        1.7046199119
 H        -9.6879078091        0.2145895213        2.7218084813
 H       -10.6991091073       -0.8011064509        1.8671259207
 H       -11.2743778814        1.0155755025        2.2052492566
 H        -9.1829259916       -1.3576055250        0.3631945596
 H        -7.9448219918       -0.3112883783        1.0467268563
 H        -8.4013862061       -0.4884936700       -0.7340347417
 H       -13.8750078379       -3.3842411084       -5.0428876840
 H       -13.2104621355       -1.7969241106       -4.5483483810
 H       -14.5666741662       -2.6279003345       -3.7056402998
 H       -14.4500896557       -4.5692940197       -2.5996278677
 H       -12.8257933721       -5.2587379993       -1.9892208829
 H       -13.3038215033       -5.8032349239       -3.5281225970
 H        -7.2140845820       -6.8396741633       -6.4017042815
 H        -6.3047715957       -7.3865554468       -5.0180844663
 H        -5.4098970059       -6.5007864152       -6.2293334618
 H        -5.0532073284       -4.7872755954       -3.9552419308
 H        -6.0531209358       -5.9572908506       -3.0924793128
 H        -6.5216879882       -4.2475252682       -3.0300997965
 H       -11.1736950475       -1.5977035981       -8.0649074510
 H       -11.2902306951       -0.3773250865       -6.6897651047
 H       -10.6911393793       -1.9700970683       -6.3915365285
 H        -8.4594486058        0.8923815132       -8.9562428110
 H       -10.1647597639        1.0823747920       -8.5119998210
 H        -9.6049846874       -0.2030472540       -9.6190524443
 H        -6.2057370231       -0.8621354385       -3.4606672366
 H        -5.1405598368       -0.9932000542       -2.0972546744
 H        -4.8586131502       -1.9304214487       -3.6527011672
 H        -4.3582954527        1.5513482346       -1.9094446145
 H        -5.9152436184        1.4860942218       -2.6093069013
 H        -4.6957216148        2.5294461864       -3.3399890746
 H         3.1912480432        1.9052377972       -5.9355228342
 H         2.1744442323        1.6745542959       -4.4292268651
 H         1.9558821380        2.9918419548       -5.6474938608
 H         0.4238855582        0.9755969252       -8.3374943238
 H         2.1695724238        0.8465962684       -8.3913029647
 H         1.3360664854        2.3522700490       -7.8142576390
 H         0.3163571158       -5.6996889214       -5.1261434968
 H        -1.3025580098       -6.2029949315       -5.1599891763
 H        -1.0510922006       -4.6166559170       -4.7024560000
 H         0.3236685451       -6.0374098883       -8.5099947789
 H        -1.1681795736       -6.9384101327       -7.9518751988
 H         0.3602099533       -6.9740921882       -6.9072066376
 H        -2.6532445842       -0.3975677801      -12.1243707565
 H        -1.3961156479       -1.3100430886      -11.3264719699
 H        -2.4057468011       -0.3733205137      -10.2716209359
 H        -4.6753635060       -0.8638125633      -12.6173325178
 H        -5.5189395020       -1.0675912719      -11.0620627431
 H        -5.2982888338       -2.5105956118      -12.1908032791
 H        -2.9930209300       -4.9423094275      -18.4882910230
 H        -3.1804837395       -6.2026369162      -17.2196486826
 H        -1.7646311170       -6.2961292243      -18.3710191292
 H         0.1469658119       -5.8089391378      -16.4974141707
 H        -1.3167585696       -6.2208890358      -15.5364233442
 H        -0.2352704923       -4.8539857814      -15.1688561500
 H        -2.7440492664        0.2020581602      -21.5434525552
 H        -1.7315348898        1.8008514774      -21.5616920479
 H        -2.1002620703        1.2946754483      -20.0705831390
 H         0.4068191473        1.3797014811      -22.5505026883
 H        -0.0510932253       -0.3173003354      -22.9472151053
 H         1.3055793955        0.0137644989      -22.0750827328
 H         4.9330800437        3.8848309478      -16.8282296066
 H         4.1579442848        2.3696563418      -16.6697284124
 H         3.2761655436        3.8023001019      -16.4244730049
 H         4.7214737077        5.3821424995      -18.7351013843
 H         4.3634801150        4.7653317219      -20.2428538841
 H         5.7084293364        4.0250770980      -19.3711134673
 H         5.2373079248       -1.0514063209      -17.7545697314
 H         5.0187627477       -2.8858274771      -17.5519459123
 H         3.7187962772       -1.7190805967      -17.9075987331
 H         6.7849951399       -2.6868600349      -20.8438961730
 H         6.6436547881       -3.6258113458      -19.4157522204
 H         7.1035324805       -1.7927006934      -19.3345372023
 Na        1.5035620423       -2.3383176480      -19.4963778741
 Na       -3.8705676264       -2.2790129872       -6.4684779679
