232

 C         4.6739974219       -4.2240413592      -21.2188104723
 C         4.1615483923       -3.4207860570      -20.0604355653
 O         3.0173715939       -3.6853844251      -19.6414020186
 C         4.9247883639       -2.2191382422      -19.5346298073
 C         4.4225415758       -0.9099127540      -20.2453402716
 O         3.3138414924       -0.9060177271      -20.7006529818
 C         5.3418026956        0.2439766733      -20.5284919578
 C         4.5790243911        1.5916475673      -20.4336054904
 C         4.1243965416        1.9294890178      -19.0167338884
 O         4.3264747550        1.0015030114      -18.2232194036
 C         3.7076763885        3.3587807561      -18.5981696033
 C         2.2025702819        3.5015584506      -19.1766591294
 O         2.0887923101        3.8120875019      -20.3492902919
 C         1.0053117860        2.9334231777      -18.4458323995
 C         0.0923887092        2.3196529032      -19.5457175016
 C         0.2085113500        0.8328876927      -19.5891284176
 O         0.8786527696        0.0289407353      -18.9550133552
 C        -0.5498283563        0.1877767760      -20.8613741735
 C        -0.7329155363       -1.3479219071      -20.5826569664
 O         0.0399257980       -2.1666326661      -21.0261212236
 C        -1.6858986419       -1.5883642758      -19.4627013193
 C        -2.0309607650       -3.0280970068      -18.8632625660
 C        -1.0682807270       -3.5153525939      -17.8029851131
 O         0.1120549194       -3.2478389260      -17.6441034499
 C        -1.7428050604       -4.6330513895      -16.8377463565
 C        -2.7168977549       -3.9470264659      -15.8861047841
 O        -3.7624243637       -3.4442533674      -16.2050092122
 C        -2.5443116269       -4.1721313840      -14.3591190395
 C        -2.6656155923       -2.8440997995      -13.6844048708
 C        -2.7177481966       -3.0366694334      -12.2337706007
 O        -2.3629610388       -4.1111241722      -11.7256817954
 C        -3.3584979694       -1.9834067118      -11.1745267832
 C        -3.3904809883       -2.6136754778       -9.6894218989
 O        -3.0785587975       -1.9692908237       -8.7044334902
 C        -3.7946416171       -4.1476039374       -9.3607199446
 C        -2.6160268217       -4.9941553121       -8.7456740390
 C        -2.2232773665       -4.7705311584       -7.2587080035
 O        -2.9807266177       -4.2496175950       -6.4649209171
 C        -0.7245865158       -5.2486830699       -6.8393861263
 C         0.0203727931       -3.7671631067       -7.3623788742
 O         0.2143562577       -3.5723122240       -8.5450443891
 C         0.4387623524       -2.8299973094       -6.3440920396
 C         0.7840501441       -1.4681558027       -6.9470933314
 C         1.5643012734       -0.5780327904       -6.0245370217
 O         2.1193475584       -1.0413131131       -5.0385032040
 C         1.3034259291        0.9439884453       -6.2545787799
 C        -0.2433217913        1.0734286190       -5.8289534095
 O        -1.0120225059        1.4455370435       -6.6441514643
 C        -0.5767282219        0.5486212360       -4.3884088394
 C        -1.9938412905        0.9754425944       -3.9606757757
 C        -3.0662034679       -0.1674907583       -3.9433630986
 O        -2.7856015493       -1.3472206145       -4.1201121972
 C        -4.5905398450        0.2707689682       -3.7655754247
 C        -5.1912660818        0.3988778857       -5.2551286690
 O        -4.6755426625       -0.1781299077       -6.1659787846
 C        -6.4099521163        1.2525310701       -5.4088648906
 C        -7.2205682183        0.8812261611       -6.6877983724
 C        -8.5473342002        0.1201130486       -6.4109487048
 O        -9.0018081568        0.0708713964       -5.3239268619
 C        -9.2825982925       -0.6832617715       -7.6233499323
 C        -8.4957566042       -1.9604469040       -8.0690781288
 O        -7.9636596989       -2.0231872965       -9.1797142394
 C        -8.3787520811       -3.1539422167       -7.1360941139
 C        -7.1491720650       -4.0151059195       -7.3226855457
 C        -6.4455668040       -4.0427914210       -5.9260043009
 O        -5.6647747071       -3.1860691717       -5.4776991863
 C        -6.7735927350       -5.2481011935       -4.9583021174
 C        -8.3753141063       -5.2990482138       -4.7779256296
 O        -9.0550809509       -5.6894714407       -5.6946402263
 C        -8.9639109807       -4.9509060537       -3.4048406785
 C       -10.4935885349       -5.1929961547       -3.3527426019
 C       -11.3284177657       -3.9988479901       -3.8929817057
 O       -10.8275097353       -3.0943290444       -4.5460210954
 C       -12.7273302435       -3.5852297883       -3.2594690748
 C       -12.4199606678       -2.6018413516       -1.8859218623
 O       -12.7283085691       -3.0863426897       -0.8637228197
 C       -11.8429416310       -1.2213293629       -1.9840236629
 C       -12.0782331402       -0.3218736287       -0.7803803003
 C       -10.7963731203        0.6695891139       -0.7399905289
 O       -10.6126078149        1.4719589500       -1.6508418610
 C        -9.8355646098        0.6535318674        0.5136189544
 C        -9.2067788619        2.1076843926        0.4167484631
 O        -8.3695373609        2.3955023070       -0.4415496441
 C        -9.7075835022        3.2207460109        1.4993525410
 C       -10.5199292416        0.4072996590        1.8935140829
 C        -8.6945145604       -0.3677110306        0.1914545567
 C       -13.4588539699       -2.7711673506       -4.3126739238
 C       -13.5953340360       -4.8105237579       -2.6989360580
 C        -6.3458481972       -6.5572681917       -5.6227663591
 C        -5.9474827612       -4.8962055694       -3.7382057081
 C       -10.6612530518       -1.0761759641       -7.0035642631
 C        -9.4894913327        0.4409959907       -8.6946268377
 C        -5.2798701413       -0.9753214534       -3.0827276732
 C        -4.8008753418        1.5655746677       -2.9046637549
 C         2.1827946437        1.8437598959       -5.4395898653
 C         1.3104616365        1.2623655609       -7.7793627201
 C        -0.6480101843       -5.3545886680       -5.2943730831
 C        -0.0501242085       -6.4659871794       -7.6651784622
 C        -2.3806681381       -0.7555710938      -11.1510974588
 C        -4.7752678127       -1.6524941503      -11.6517832688
 C        -2.5209339727       -5.6623952883      -17.6224328143
 C        -0.5433028343       -5.5371194464      -16.0815987166
 C        -1.8780345772        0.7948452253      -21.2136408756
 C         0.3180569676        0.2980175803      -22.0487043399
 C         3.7271958511        3.4360002316      -17.0292264401
 C         4.7446366965        4.4576347143      -19.2077352501
 C         4.6404263404       -2.0642209448      -18.0011886880
 C         6.5037433652       -2.3851380742      -19.7273220918
 H         5.0250784622       -5.2202807676      -20.9634323200
 H         5.4604757001       -3.6783937528      -21.6721903470
 H         3.8961791156       -4.2965292178      -22.0008847626
 H         5.8206629515        0.0117730598      -21.5403290808
 H         6.1706403651        0.1836653940      -19.8153352680
 H         3.7635100301        1.5837729206      -21.2124088976
 H         5.1590823304        2.4320616834      -20.8175044260
 H         0.4449478288        3.7647354265      -17.9759193602
 H         1.3349929412        2.1687966730      -17.7317426524
 H         0.2686739483        2.7054115735      -20.5590938546
 H        -0.9190799701        2.6604459197      -19.4542137253
 H        -2.7028242467       -1.2374875568      -19.7664310282
 H        -1.3611894475       -0.9960804408      -18.6301871433
 H        -1.9267574772       -3.7566303217      -19.7360792817
 H        -3.0252214716       -3.1531275961      -18.5425089760
 H        -1.5243971856       -4.5202116473      -14.1173496715
 H        -3.2788573799       -4.8283273765      -14.0299901657
 H        -3.5604656407       -2.3379875653      -14.0866694831
 H        -1.9914013654       -2.0460665763      -13.9434858618
 H        -4.1053940711       -4.7356396347      -10.2654579612
 H        -4.5215021236       -4.2314412883       -8.5212210076
 H        -1.7200487347       -4.9707021749       -9.4113361082
 H        -2.9429141200       -6.0379014661       -8.8551127134
 H         1.3193130475       -3.2768006483       -5.8578868436
 H        -0.3912129481       -2.8278710145       -5.6408843232
 H        -0.1417687805       -0.9267930420       -7.1619646034
 H         1.3303093487       -1.7595750468       -7.8501087767
 H         0.2274223643        0.9408034893       -3.8696925299
 H        -0.4807494815       -0.5193885092       -4.4434154573
 H        -2.3673514829        1.7098799514       -4.7342390022
 H        -1.8712839102        1.3651186327       -2.9903955725
 H        -5.9970175977        2.3259816410       -5.4034554228
 H        -7.1435492819        1.3065046931       -4.5749734912
 H        -6.6885561881        0.4500194156       -7.4980265816
 H        -7.6181316370        1.8622716670       -7.0919557830
 H        -9.2404331532       -3.7068128747       -7.3870528062
 H        -8.4991600654       -2.7970840250       -6.0965736404
 H        -6.5392493282       -3.6748516759       -8.1947862164
 H        -7.4964811933       -5.0795884497       -7.4651323015
 H        -8.4844934375       -4.0505457443       -3.0332881560
 H        -8.4480690940       -5.7371222440       -2.7663913027
 H       -10.7906928128       -5.3666224411       -2.3010950474
 H       -10.7369887734       -6.2052009637       -3.7665999564
 H       -12.0185565571       -0.7734494724       -2.9935535234
 H       -10.7217890663       -1.4803793722       -2.0798599179
 H       -12.3132172062       -0.8386389734        0.1828917996
 H       -12.9271437289        0.3356211254       -0.8717058439
 H       -10.0351450774        2.9008626296        2.4484137260
 H       -10.3545599365        3.7466480719        0.8295997654
 H        -8.9597437390        3.9090962733        1.8182089291
 H        -9.9500858146        0.6308535675        2.8259282184
 H       -10.6193193577       -0.6794450555        1.9941936871
 H       -11.4488674889        0.9382222850        1.9121297678
 H        -9.0498341919       -1.3649470092        0.2775304349
 H        -7.8773794171       -0.2464376439        0.9313717953
 H        -8.3326933670       -0.4096049409       -0.8259529315
 H       -13.7347425543       -3.4947611994       -5.0583487295
 H       -12.6937285868       -2.1815684551       -4.8542108312
 H       -14.3909913703       -2.1186644667       -4.0511801040
 H       -14.5253758793       -4.3660846715       -2.2884181605
 H       -13.0243525269       -5.4396106133       -2.0371469002
 H       -13.8096075893       -5.5825555808       -3.4789400953
 H        -7.0566087044       -6.9798805263       -6.2258969577
 H        -6.0435666889       -7.3724283147       -4.9191637960
 H        -5.4361832948       -6.3337306831       -6.2022783500
 H        -4.8656835665       -5.0443515984       -3.9516357063
 H        -6.2587981160       -5.5785965544       -2.9974323515
 H        -6.1976886607       -3.8911552257       -3.3739637426
 H       -11.1588260959       -1.6503607783       -7.8434860318
 H       -11.2056870420       -0.1673285876       -6.7735261314
 H       -10.6507083966       -1.7418651343       -6.0470753871
 H        -8.6810556394        1.1461185950       -8.8241390545
 H       -10.3809806530        1.0519402489       -8.3163922643
 H        -9.6599251374       -0.0144444700       -9.6595927754
 H        -6.3455886075       -1.0317408955       -3.3414364683
 H        -5.0540150830       -0.8232216329       -2.0692024953
 H        -4.8082246743       -1.8322142016       -3.5272211150
 H        -3.9885093739        1.5015305963       -2.1208461224
 H        -5.7696460203        1.5743020573       -2.4457307416
 H        -4.7002194565        2.4787390801       -3.4815638410
 H         3.1511152047        1.9690338581       -5.8985918152
 H         2.2034466221        1.4944188949       -4.4576925154
 H         1.8326791646        2.7740832383       -5.4118395221
 H         0.5859549731        0.7261601085       -8.2815230189
 H         2.2810562377        0.9581020041       -8.2099805038
 H         1.1207992928        2.3965642856       -7.8554795571
 H         0.3495372479       -5.3686308342       -4.9232828305
 H        -1.1924575872       -6.2285248893       -4.8949977241
 H        -1.2077966149       -4.5911772078       -4.7942483326
 H         0.6139634500       -6.0921437702       -8.5043208126
 H        -0.7813186817       -7.1126426636       -8.0899071004
 H         0.5768622211       -7.1093599180       -6.9800617917
 H        -2.4934745771       -0.1754526782      -12.0837294039
 H        -1.3528408151       -1.0853255895      -11.1431023578
 H        -2.5659949422       -0.2048895616      -10.1648527109
 H        -4.7351926651       -0.8462228286      -12.3910350109
 H        -5.4145356688       -1.2689920233      -10.7629221082
 H        -5.2468649919       -2.5280490807      -12.1649129762
 H        -3.5031039706       -5.3326999213      -17.8408195878
 H        -2.6376458194       -6.5850985685      -16.9430465187
 H        -1.9696714067       -5.9355955906      -18.5388459603
 H        -0.0451044749       -6.0319249107      -16.9142468056
 H        -0.9781132807       -6.2497371107      -15.4265387219
 H         0.2341994024       -4.9516577198      -15.6364642556
 H        -2.3676211171        0.0865733798      -21.9161963475
 H        -1.6576519188        1.7998240682      -21.5407008992
 H        -2.4539163577        1.0030226171      -20.3464767243
 H         0.6421925881        1.3058833215      -22.2359667925
 H        -0.1135255726       -0.0813051557      -22.9743564167
 H         1.2759666313       -0.2955208073      -21.8554917096
 H         4.7743428732        3.5679539169      -16.8166127106
 H         3.5034122104        2.5439118221      -16.5347132143
 H         3.2552587666        4.2553323933      -16.5799582520
 H         4.5465137880        5.4841967260      -18.9111653643
 H         4.7566413393        4.6066926069      -20.3491594287
 H         5.7308220119        4.2088653931      -18.9816468352
 H         5.3754964250       -1.4584323635      -17.5765246448
 H         4.4870419332       -3.0212649229      -17.4935081166
 H         3.7550693717       -1.3664982856      -17.9668372528
 H         6.8156144967       -2.1742173023      -20.7598982764
 H         6.7880119562       -3.4201116768      -19.6070623460
 H         7.0195619797       -1.6707703024      -19.0014505058
 Na        1.4910994285       -2.3283607381      -19.4497073531
 Na       -3.8032292827       -2.2611112942       -6.4821087461
