232

 C         4.6181843560       -4.2638309819      -21.3031611364
 C         4.1664517328       -3.4035705534      -20.0497041281
 O         3.1293037692       -3.7343591249      -19.5869489876
 C         4.9396634215       -2.1393962386      -19.3936099541
 C         4.3874270484       -0.8771826279      -20.2130518536
 O         3.2366912305       -0.8687524239      -20.6082836445
 C         5.3060866569        0.3209124286      -20.6000647498
 C         4.6607210765        1.6639923327      -20.5568554964
 C         4.2576433686        1.9415552694      -19.0649963132
 O         4.3153085548        1.0560825936      -18.2333852835
 C         3.6888895469        3.2882656731      -18.5589842166
 C         2.2006431236        3.3875257097      -19.1772316109
 O         2.1354410082        3.9380053878      -20.2521241743
 C         0.9511634484        2.8868155724      -18.3707078728
 C        -0.0436977366        2.1952866900      -19.4479893500
 C         0.1567480986        0.7106095467      -19.6730575360
 O         0.8685816902        0.1113004577      -18.8754706803
 C        -0.6073598884        0.1123879939      -20.9519884626
 C        -0.8479093028       -1.3320971308      -20.5238848986
 O        -0.1284751117       -2.1929021521      -21.0546507691
 C        -1.8996655276       -1.5820489998      -19.4197991086
 C        -2.0819752462       -3.1098398598      -18.9043160722
 C        -1.1586943176       -3.5701737373      -17.7918841313
 O        -0.0737769396       -3.0845441865      -17.5965094899
 C        -1.7552136034       -4.7202967865      -16.9523637696
 C        -2.7086662870       -4.1170175984      -15.8222781209
 O        -3.6140873098       -3.4110054106      -16.1848022004
 C        -2.4668372478       -4.2457409754      -14.2995100954
 C        -2.5941267671       -2.8459299682      -13.6774769676
 C        -2.6437863058       -3.0890103695      -12.1916102819
 O        -2.3503913211       -4.2238904795      -11.8529487755
 C        -3.2206778171       -2.0405382770      -11.0761600179
 C        -3.1223333475       -2.6865079405       -9.6905009455
 O        -3.0389161539       -1.9665202269       -8.7085243334
 C        -3.6726624925       -4.1670628157       -9.4666362213
 C        -2.5951763595       -5.0904223136       -8.7694478045
 C        -2.1754571946       -4.8600858161       -7.3514349503
 O        -2.8909919087       -4.3558706833       -6.4892627885
 C        -0.7070419130       -5.1502059140       -6.9724081283
 C         0.1082200853       -3.8746595131       -7.3778842305
 O         0.3142761672       -3.6947634936       -8.5776602065
 C         0.4373332182       -2.8589265560       -6.3144598168
 C         0.7412142415       -1.5308196999       -7.0026107746
 C         1.4928332733       -0.6104874480       -6.0263226147
 O         2.2152261351       -0.9292074871       -5.1344044607
 C         1.2553439500        0.9108437539       -6.2305092951
 C        -0.2568051102        1.0589247422       -5.8055773111
 O        -1.0676804186        1.4084390046       -6.6141237503
 C        -0.6059857714        0.6238939069       -4.3521463245
 C        -2.0408583154        1.0142257551       -3.9493159876
 C        -3.0414486311       -0.1530547509       -4.0094243435
 O        -2.7115238525       -1.3071350498       -4.2541676713
 C        -4.5550119259        0.1123018639       -3.7993377034
 C        -5.2531899816        0.3124591255       -5.2667166195
 O        -4.8578699825       -0.2651881894       -6.2616972860
 C        -6.4447900938        1.2912092747       -5.4493932744
 C        -7.1817364774        1.0131489999       -6.7486986579
 C        -8.4662776485        0.1405209387       -6.4103228253
 O        -8.8799194092        0.2066485365       -5.2684863080
 C        -9.3211661541       -0.5305900046       -7.5242831012
 C        -8.4938155204       -1.8774100084       -8.0851914369
 O        -8.1997051119       -1.9742314496       -9.2448435534
 C        -8.4507013624       -3.1054768363       -7.1204504370
 C        -7.1925496468       -4.0147220609       -7.2265623261
 C        -6.4696552423       -4.1164045175       -5.9008303157
 O        -5.7150594484       -3.1733649870       -5.6478890651
 C        -6.7250504934       -5.2174402379       -4.8944760884
 C        -8.3231224836       -5.4039572840       -4.7248207040
 O        -8.9372072339       -5.8645031481       -5.6594244899
 C        -9.0256909280       -4.8960631779       -3.4055703931
 C       -10.5449695159       -5.1489614342       -3.2618274933
 C       -11.2821301361       -3.9548733109       -3.7361013317
 O       -10.7911947512       -3.1968950897       -4.6187941312
 C       -12.7051636035       -3.5763874078       -3.2243944120
 C       -12.4221464167       -2.6957682783       -1.8792500074
 O       -12.6293073133       -3.1198414183       -0.7645163833
 C       -11.8007854842       -1.2401394591       -2.1283537888
 C       -11.9397629960       -0.3512256889       -0.8903517762
 C       -10.8665901612        0.7318647617       -0.7595269446
 O       -10.6293476298        1.4281363920       -1.7252626803
 C        -9.8715555295        0.7282500986        0.4908247885
 C        -9.1530849000        2.0995708293        0.4032642178
 O        -8.2679524670        2.2537384170       -0.4075537352
 C        -9.5017818908        3.1642789250        1.4143340717
 C       -10.5712238812        0.4561593379        1.7556286734
 C        -8.7137775724       -0.2953674313        0.1801635509
 C       -13.4245277190       -2.7748099751       -4.3579337880
 C       -13.6327354451       -4.6773387650       -2.6490023476
 C        -6.2958760304       -6.5789717677       -5.5292205062
 C        -5.9017720325       -4.9988971836       -3.5846031198
 C       -10.6079110564       -0.9964136198       -6.9579803943
 C        -9.5385177240        0.3636889229       -8.7784669086
 C        -5.4014164699       -0.9105800870       -2.9919282130
 C        -4.6632796745        1.4457176236       -3.0864405546
 C         2.2046703494        1.7540851583       -5.3545227880
 C         1.4411944200        1.3114730648       -7.7209908903
 C        -0.6723405224       -5.3524583325       -5.4497469564
 C        -0.0743265070       -6.3528510208       -7.5936318545
 C        -2.4694757927       -0.6074409946      -11.0643100323
 C        -4.6785468447       -1.7155732239      -11.4162721749
 C        -2.6707802925       -5.7961835099      -17.6039843628
 C        -0.4489844707       -5.4141536207      -16.3820667330
 C        -2.0470878277        0.8737581693      -21.2739515203
 C         0.5104212120        0.3204863507      -22.1622969793
 C         3.4842088992        3.5779043742      -17.0664964666
 C         4.5410929791        4.3699148137      -19.0889768954
 C         4.4964110508       -2.1223650607      -17.9015459815
 C         6.5146069028       -2.2060529155      -19.6420066950
 H         4.8208956531       -5.2797155172      -20.8252159905
 H         5.5194252978       -3.9868034522      -21.8654563876
 H         3.8017843308       -4.3644054833      -22.0223314494
 H         5.8546780513        0.0562473269      -21.5160287618
 H         6.0540014775        0.3072877122      -19.8190577361
 H         3.6447514693        1.5934947530      -21.1524073253
 H         5.1260721714        2.4393818018      -21.1241750962
 H         0.4978350125        3.8599234051      -18.1477724281
 H         1.1140584358        2.2604690431      -17.4900284566
 H         0.0871970896        2.6563649271      -20.4069613139
 H        -1.0901253081        2.5112988244      -19.2583706586
 H        -2.9271392425       -1.3966898777      -19.7343187868
 H        -1.6974682206       -0.9470569525      -18.5499973955
 H        -2.0985015794       -3.7394539410      -19.8001342514
 H        -3.0968604136       -3.2709751616      -18.5140567939
 H        -1.4039713884       -4.5269281486      -14.1333437275
 H        -3.1093621095       -5.0496663406      -13.8059422075
 H        -3.4632893158       -2.3559767745      -14.1269276323
 H        -1.8454613669       -2.1890453121      -13.9474987532
 H        -3.8786405537       -4.6137901277      -10.4250917409
 H        -4.4890264660       -4.1947898043       -8.7746804554
 H        -1.6857127769       -5.1114687106       -9.4018103557
 H        -2.9280973407       -6.1340767150       -8.8433263537
 H         1.4200922239       -3.1106655232       -5.8263813338
 H        -0.4084260041       -2.8207438260       -5.6389453848
 H        -0.2227794828       -0.9603578092       -7.3309660043
 H         1.3851028092       -1.8661571910       -7.8515219799
 H         0.2148922858        1.1034843710       -3.8458384577
 H        -0.4424037160       -0.4982759315       -4.3481857908
 H        -2.4095691657        1.8323670040       -4.5663712192
 H        -1.9447598400        1.2700985744       -2.9285494706
 H        -5.9772427007        2.3342377642       -5.3473361698
 H        -7.2038546811        1.2776238282       -4.6873324068
 H        -6.5375166184        0.4318415291       -7.4137544383
 H        -7.4962064862        1.9283195292       -7.3476188983
 H        -9.3929459049       -3.6473749955       -7.2709828557
 H        -8.5070079315       -2.6291808315       -6.1197427823
 H        -6.4939906563       -3.4167792993       -7.9239851726
 H        -7.3866000487       -5.0455034393       -7.6464710041
 H        -8.7381203382       -3.8696680994       -3.4144303404
 H        -8.4964143058       -5.2149617926       -2.5377278883
 H       -10.7780149925       -5.4888235616       -2.2276388781
 H       -11.0022665207       -5.9965209025       -3.8399799984
 H       -12.3740770781       -0.7979153997       -2.9568394161
 H       -10.7875285287       -1.3998277277       -2.5772859167
 H       -12.0606937342       -0.8866468612        0.0677307149
 H       -12.9087963670        0.2198052065       -0.9218537063
 H        -9.7958650276        2.8373267157        2.4188178107
 H       -10.1343593474        3.7257636424        0.8109218513
 H        -8.7050675752        3.8068503452        1.7038966786
 H       -10.0706908175        0.7040252187        2.6181289726
 H       -10.7135364115       -0.6216352990        1.8078181589
 H       -11.4982382057        0.9350001389        1.7110347939
 H        -9.0684864134       -1.3353923905        0.0518154832
 H        -7.9615312435       -0.2650012295        0.8990697913
 H        -8.2595524033       -0.1215944773       -0.8163691215
 H       -13.8308660833       -3.5345582308       -5.1350415917
 H       -12.6401448072       -2.3163829667       -4.9384164917
 H       -14.2022911840       -2.0137045079       -4.0711497882
 H       -14.4644080287       -4.1676821772       -2.2014730671
 H       -13.2430928334       -5.5008335138       -2.1827624526
 H       -14.0676494564       -5.0863949597       -3.5036494538
 H        -6.9519190941       -7.0749133935       -6.2300926082
 H        -6.1004392973       -7.2585488715       -4.7622410841
 H        -5.3492754890       -6.4070808044       -6.0263431239
 H        -4.8733598370       -5.2827330005       -3.6945737624
 H        -6.4169037251       -5.5974345931       -2.8403442361
 H        -6.0032740069       -3.9353386195       -3.2639854404
 H       -11.0682248423       -1.6849334939       -7.6874819938
 H       -11.2811063515       -0.1011518440       -6.7629625868
 H       -10.4529920735       -1.5339435333       -6.0090329596
 H        -8.6961912328        0.9055328010       -9.1810772913
 H       -10.2990807616        1.1436072923       -8.4874399239
 H        -9.9142628636       -0.3493896602       -9.5528210772
 H        -6.5298048087       -0.6887461705       -3.0603457612
 H        -4.9819029246       -0.7370265811       -1.9767148451
 H        -5.2671196758       -1.8289382265       -3.4785010838
 H        -3.9268242569        1.3886675576       -2.2561857711
 H        -5.7318313816        1.6864010645       -2.7147606446
 H        -4.4217301637        2.2533113904       -3.7732691809
 H         3.1044745157        1.9256095616       -5.8337275364
 H         2.3055711241        1.3503702822       -4.4012412910
 H         1.7929517388        2.7699491179       -5.1647168163
 H         0.9675730096        0.5772178231       -8.4225104738
 H         2.5213794578        1.2010781001       -7.8899664984
 H         1.1255578794        2.3468838193       -7.8748870154
 H         0.4000151528       -5.1014426851       -5.1240153200
 H        -0.9429040405       -6.3501661520       -5.1432462296
 H        -1.3332693446       -4.8001725213       -4.8597814249
 H         0.5322903179       -6.1107662832       -8.4411853438
 H        -0.7386953923       -7.1409538616       -7.8095898720
 H         0.5647086748       -6.7374150654       -6.8925781029
 H        -2.4758289879       -0.1214122351      -12.0260777977
 H        -1.3697326972       -0.6916054042      -10.7279838553
 H        -2.9898396105       -0.1282038378      -10.2245486118
 H        -4.7231816549       -0.9406551909      -12.1966276388
 H        -5.0404359017       -1.2858820337      -10.4881681465
 H        -5.2996508571       -2.5470678479      -11.7630911018
 H        -3.7070099391       -5.5989583372      -17.3688215125
 H        -2.4847726958       -6.7247284529      -17.1712670188
 H        -2.5124437679       -5.8150866151      -18.6717577747
 H        -0.0454778636       -6.0691585186      -17.1631504827
 H        -0.6325374258       -5.9951804556      -15.4889638200
 H         0.2802627590       -4.6101153231      -16.2438642509
 H        -2.1840884830        0.4213334228      -22.2425075069
 H        -1.8891990339        1.9570931786      -21.3329321106
 H        -2.8164220027        0.6785978508      -20.6415919000
 H         0.9127082680        1.2909045635      -22.0769221136
 H         0.2411918848        0.2091179151      -23.2472852129
 H         1.4332911533       -0.3770363590      -21.9667395057
 H         4.2758162315        3.3450443654      -16.4451395785
 H         2.6378843074        3.0753984953      -16.6667978203
 H         3.3315254978        4.7142489399      -16.9958769546
 H         4.1388492540        5.3422430453      -19.0377510754
 H         4.7324887671        4.2247530357      -20.1238013753
 H         5.5300559033        4.3274826522      -18.6658056514
 H         5.3466030076       -1.6848826529      -17.2568448696
 H         4.2346039304       -3.1384156085      -17.5657611849
 H         3.7058016556       -1.3937262646      -17.8325026651
 H         6.7048113538       -1.8538091157      -20.6665010783
 H         6.8839568146       -3.2243239596      -19.6266548782
 H         7.0172893531       -1.5876503199      -18.8973001166
 Na        1.4844028248       -2.1620003359      -19.2809294717
 Na       -3.7239703596       -2.1393630248       -6.4285987486
