232

 C         4.7206899970       -4.1548182499      -21.2453275102
 C         4.1855256211       -3.4220236239      -20.0585761574
 O         3.1646897386       -3.7610209476      -19.5036999357
 C         4.8885776955       -2.1225546148      -19.4976772314
 C         4.3453847278       -0.9128402305      -20.1833598303
 O         3.1153042050       -0.7945423324      -20.3964915299
 C         5.2689150992        0.3317311761      -20.6087996422
 C         4.5976836441        1.6535361844      -20.3779261798
 C         4.2167994210        1.8381426241      -18.9356032961
 O         4.3861830042        0.9106379293      -18.1879411366
 C         3.5626991614        3.4115022277      -18.5340406451
 C         2.1653942473        3.4159137823      -19.2700487960
 O         2.0248698556        4.0198375519      -20.3029154831
 C         0.9705759253        2.8309128376      -18.5155835592
 C        -0.1908436253        2.3172486891      -19.3743014706
 C         0.0395563732        0.8123971668      -19.7212663021
 O         0.7323695668        0.1226676104      -18.9979992586
 C        -0.5827243772        0.1378303420      -20.8875607542
 C        -0.9252417517       -1.4046404205      -20.5222216558
 O        -0.3669467925       -2.3865004969      -20.9723677662
 C        -2.0719784994       -1.5936952910      -19.5170563528
 C        -2.2299600886       -3.1040148819      -19.1222151684
 C        -1.3530797872       -3.5957054097      -17.8886258052
 O        -0.3286542777       -2.9293835700      -17.6304415546
 C        -1.6744609851       -4.8300680570      -16.9945101213
 C        -2.5210725242       -4.0588359423      -15.8807304592
 O        -3.4864947271       -3.4048083708      -16.2885715390
 C        -2.2676909564       -4.1570103633      -14.3905906608
 C        -2.5640352432       -2.8427644007      -13.5849371586
 C        -2.5676784812       -3.1539511086      -12.0470241372
 O        -2.2686424707       -4.2521089705      -11.6807995039
 C        -3.0751948239       -2.1195844381      -10.9943248427
 C        -3.0956134148       -2.7361234350       -9.5825517733
 O        -2.9036364450       -1.9459233662       -8.6814031995
 C        -3.5708994676       -4.1364637154       -9.4209786758
 C        -2.5016776750       -5.1722168099       -8.9302392335
 C        -2.1269510463       -4.8420337876       -7.4532617655
 O        -2.9500501617       -4.4331446803       -6.6389244910
 C        -0.6014494014       -5.1877215135       -6.9568218493
 C         0.0742203636       -3.9562223146       -7.4569550227
 O         0.4396817809       -3.8688340485       -8.6087100084
 C         0.4820328071       -2.8818549888       -6.3194841301
 C         0.8570678457       -1.5093562514       -6.9820002489
 C         1.5406353841       -0.5634101120       -6.0289931824
 O         2.3241896365       -1.0367153716       -5.2228276723
 C         1.2580082239        0.9856459746       -6.2352804106
 C        -0.2826421350        1.1472004997       -5.8231636990
 O        -1.2633632179        1.4052879624       -6.5562180647
 C        -0.6571466927        0.7031918151       -4.2793434127
 C        -2.1385526886        0.9190642407       -3.9364703049
 C        -3.0320664732       -0.2380884116       -4.1985726695
 O        -2.5628136879       -1.3145446998       -4.5102012311
 C        -4.5782772835        0.1777983324       -3.9340139566
 C        -5.2958846985        0.3132844575       -5.2878982685
 O        -5.0005443422       -0.3810786005       -6.2767415943
 C        -6.3863707049        1.3059364284       -5.5183457479
 C        -7.2141186337        1.1252085688       -6.7476483522
 C        -8.4501826990        0.3116971783       -6.4395146677
 O        -8.7749225796        0.2116265195       -5.2635475375
 C        -9.3228113350       -0.5218337918       -7.5302791433
 C        -8.6355467135       -1.7857944716       -8.0646575053
 O        -8.3255124355       -1.9186244106       -9.2203656721
 C        -8.5369931750       -2.9656703223       -7.0330059486
 C        -7.3111085187       -3.9499127825       -7.2626547032
 C        -6.4766508081       -4.0459317256       -5.9321917989
 O        -5.6798491004       -3.1995933301       -5.6784782240
 C        -6.7373394062       -5.2795278948       -4.7944233845
 C        -8.2908283155       -5.4529119103       -4.6556454970
 O        -8.9109775140       -6.0210304108       -5.5399114666
 C        -8.9842531764       -4.8681206019       -3.3629862079
 C       -10.4753693544       -5.1408039438       -3.2253396665
 C       -11.3070605740       -3.9561712490       -3.7150385864
 O       -10.7279579621       -3.3343002901       -4.5739438283
 C       -12.7438825928       -3.4804454023       -3.2069344630
 C       -12.4303430725       -2.6563779517       -1.9668906700
 O       -12.4626780679       -3.1017239275       -0.8017951398
 C       -11.8438879643       -1.2210867196       -2.2169053744
 C       -11.8573325242       -0.4433293665       -0.9312651923
 C       -10.7786638997        0.6458870889       -0.9856751353
 O       -10.6891750554        1.4657085285       -1.8402482063
 C        -9.9199656631        0.7170363116        0.3794665277
 C        -8.9764805701        2.1661180071        0.4083549468
 O        -8.0917611596        2.2342390155       -0.3822147941
 C        -9.3315380922        3.2717147885        1.3358133403
 C       -10.6875238684        0.3810182161        1.6945006618
 C        -8.8381809439       -0.3532350430        0.1776807806
 C       -13.4852546007       -2.6934640712       -4.2218981385
 C       -13.5989402902       -4.6493290672       -2.7299100470
 C        -6.1562392298       -6.6181975484       -5.4639817157
 C        -5.9824936717       -5.0986049129       -3.4386058097
 C       -10.6321572754       -0.9633238034       -6.9108370532
 C        -9.5170751045        0.2880408669       -8.8249194581
 C        -5.3896689244       -0.8721095605       -3.0395127278
 C        -4.7055429102        1.6195555700       -3.1264924506
 C         2.1657938838        1.7062032528       -5.2320417848
 C         1.5483068440        1.4440755002       -7.7146532258
 C        -0.6379999552       -5.3997433782       -5.3940380070
 C        -0.0942612671       -6.4071006905       -7.6982718447
 C        -2.4439848843       -0.7000271847      -11.0265926019
 C        -4.6063622801       -1.8767039328      -11.2249769975
 C        -2.6886959267       -5.8681225058      -17.7198691220
 C        -0.3656741069       -5.4708745265      -16.5237697320
 C        -1.8445323047        0.9160659342      -21.3388654336
 C         0.4033148618        0.2562923783      -22.0024409675
 C         3.3934794735        3.5475541176      -16.9713948875
 C         4.3970807274        4.5369083724      -19.1333343699
 C         4.4819840734       -2.0832459090      -17.9687331581
 C         6.4324274815       -2.1749003705      -19.5116408691
 H         4.9294469959       -5.1937920911      -20.9289606005
 H         5.6986175348       -3.7370554138      -21.6627525813
 H         3.9927680734       -4.1677545202      -22.0800333982
 H         5.3932588349        0.1911696531      -21.6365045630
 H         6.2783363924        0.2958205571      -20.1777774404
 H         3.7778746000        1.7876177440      -21.0476067355
 H         5.2339609449        2.5086075392      -20.7446279531
 H         0.6436790376        3.6297456260      -17.8644792264
 H         1.2539186972        1.9232266971      -17.9790773937
 H        -0.5564471990        2.9269664057      -20.1993269545
 H        -1.0631032946        2.3667782799      -18.6602016327
 H        -3.0791390484       -1.3419661355      -19.7364231644
 H        -1.7987547072       -1.0592086954      -18.5793191823
 H        -2.1590698057       -3.6639368463      -20.0147609685
 H        -3.3431972826       -3.2535496998      -18.8600045884
 H        -1.3024997592       -4.6379604173      -14.1147560511
 H        -3.1049101914       -4.9611217274      -14.1638352802
 H        -3.4848047041       -2.4393732876      -14.0473381236
 H        -1.7882660508       -2.0567680869      -13.8116007838
 H        -3.9555518033       -4.4056048683      -10.3543287406
 H        -4.2590018251       -4.2415213625       -8.6167493536
 H        -1.6819394126       -5.2803723011       -9.6077156220
 H        -2.9416420609       -6.1825282268       -8.8938503239
 H         1.3506663567       -3.2420161714       -5.7340061695
 H        -0.4280775323       -2.6020914095       -5.7077230688
 H        -0.1163927941       -1.0541578682       -7.2687910259
 H         1.5359536570       -1.7162813502       -7.8684447224
 H         0.1732409063        1.2045907360       -3.6615697673
 H        -0.4286556299       -0.3927953860       -4.3799840317
 H        -2.5467507588        1.6748445852       -4.5452142723
 H        -2.1933647391        1.2284085147       -2.8268874851
 H        -5.9346353830        2.2726103866       -5.5180841976
 H        -7.0612474107        1.3131709245       -4.6546343851
 H        -6.5986287585        0.4419069420       -7.4391896101
 H        -7.3948074029        2.0335951209       -7.2778384508
 H        -9.4878076404       -3.6216878849       -7.1182612550
 H        -8.5926012650       -2.5146935897       -6.0350880596
 H        -6.6880156967       -3.5512375402       -8.1055060767
 H        -7.6650467889       -4.9487643579       -7.5074576251
 H        -8.6763962607       -3.8303333180       -3.3896029289
 H        -8.4911673665       -5.1322236357       -2.4719992722
 H       -10.5622497997       -5.4223696365       -2.1684917877
 H       -10.9381885772       -6.0018566370       -3.6913669772
 H       -12.3828618698       -0.6943126818       -3.0119615047
 H       -10.8441166597       -1.4099138170       -2.5498897094
 H       -11.5504633312       -1.0818162292       -0.1206780834
 H       -12.8275086139       -0.0395887173       -0.5482880073
 H        -9.4492721840        2.7986726496        2.2839714360
 H       -10.0292883860        3.9927157651        0.8818696952
 H        -8.4380727675        3.8445161883        1.6245392327
 H        -9.9337645762        0.4909587290        2.4147676894
 H       -11.1467041077       -0.5875231442        1.7500536552
 H       -11.4608758116        1.1177912072        1.8856292538
 H        -9.2535182108       -1.3349026823       -0.1277833459
 H        -8.1906282728       -0.4850534697        1.0332488614
 H        -8.1549898658       -0.1228564697       -0.6473734120
 H       -13.9088906821       -3.4057777649       -4.9757664228
 H       -12.8838114638       -1.9937640124       -4.8336803891
 H       -14.2169705348       -2.1664630479       -3.7192847382
 H       -14.4656242216       -4.4068642350       -2.2240657920
 H       -13.0493870245       -5.4884279366       -2.3192519464
 H       -14.0075204897       -5.0325089255       -3.6437796600
 H        -6.7227744181       -6.9425956732       -6.4096314366
 H        -6.2834951676       -7.3935045201       -4.7549153549
 H        -5.1416501382       -6.5570911048       -5.7695132161
 H        -4.9463491891       -5.1810125014       -3.6741845256
 H        -6.3542774183       -5.7902923689       -2.6242700219
 H        -6.1229438523       -4.0755982034       -3.1266433604
 H       -11.2074026178       -1.6427406944       -7.4929711495
 H       -11.1645766665        0.0061623022       -6.7529983209
 H       -10.4252592373       -1.4003261832       -5.9811467320
 H        -8.5951724245        0.5195847558       -9.4217040090
 H        -9.8601583812        1.2212054711       -8.5177299779
 H       -10.2341187058       -0.2677877793       -9.4556646891
 H        -6.3951601112       -0.5463247219       -2.7823249250
 H        -4.7203857452       -0.9072105975       -2.1051507875
 H        -5.4873236797       -1.7646782721       -3.7508530096
 H        -4.3544108245        1.4297330865       -2.1375112676
 H        -5.7631067082        1.9539578409       -3.1305593443
 H        -4.1695032015        2.4855031661       -3.6255663969
 H         3.1612904851        1.7737261044       -5.6751113566
 H         2.2211696981        1.1481809880       -4.2476970661
 H         1.9072341134        2.7728363934       -4.8924353421
 H         1.1763153613        0.6287589429       -8.4298179378
 H         2.6421524984        1.4873564711       -7.8361766709
 H         1.1602513465        2.3948878916       -7.8949272590
 H         0.3459212543       -5.1653395104       -4.9675008432
 H        -0.9838406989       -6.3920023785       -5.1336686657
 H        -1.3664020952       -4.7668162832       -4.8112843562
 H         0.0378391691       -6.1741085940       -8.6703798480
 H        -0.7096470696       -7.2794524885       -7.5249768635
 H         0.8684662398       -6.6947120509       -7.3932070539
 H        -2.3541833553       -0.3240787702      -12.0617406569
 H        -1.4802213806       -0.5755583604      -10.5215456205
 H        -3.1419386202       -0.2432092560      -10.4069067047
 H        -4.9913784283       -1.4303152788      -12.1446000235
 H        -4.8340449208       -1.3512223869      -10.3775505361
 H        -5.1249635783       -2.7964579474      -11.1135447853
 H        -3.7077706450       -5.5954760102      -17.4110075129
 H        -2.6161764636       -6.8713907450      -17.4778573298
 H        -2.5721036162       -5.6511206251      -18.7359989775
 H         0.1177312254       -6.0387784311      -17.3350208411
 H        -0.5581114558       -6.1738717823      -15.6729411315
 H         0.2712286968       -4.6194223833      -16.2294799916
 H        -1.9522429200        0.6062375788      -22.3505627726
 H        -1.7501333061        1.9973307782      -21.2972518192
 H        -2.7150446561        0.5235557967      -20.6900697985
 H         0.8869821162        1.2905914347      -22.1408277329
 H        -0.1458899470        0.0908537793      -22.9533819637
 H         1.1354465332       -0.4305266941      -21.9491335214
 H         4.1444714235        2.9434894396      -16.3367514043
 H         2.3519692295        3.2039422352      -16.6653693602
 H         3.5308773266        4.6019457971      -16.7081351846
 H         3.8797739675        5.4831449670      -19.1069183099
 H         4.7371394997        4.3280390620      -20.1084312576
 H         5.3546225407        4.6384290549      -18.5821111965
 H         5.3540713259       -1.7152236392      -17.3480693673
 H         4.3617433520       -3.1510064849      -17.7258786082
 H         3.6342792479       -1.4503024369      -17.7774235286
 H         6.8393474206       -2.0215918694      -20.5281133015
 H         6.7633210715       -3.1442058219      -19.0715906677
 H         6.7037079869       -1.4521727330      -18.8107117396
 Na        1.4751448010       -1.9796091295      -19.0868224531
 Na       -3.6113541108       -2.1035967945       -6.3386630421
