232

 C         4.8632880028       -4.0387552956      -21.1743749529
 C         4.1829912828       -3.3911988060      -20.0414376509
 O         3.0814737696       -3.7792032296      -19.5490232205
 C         4.9212527125       -2.1277944385      -19.4016969441
 C         4.2120404145       -0.8185923881      -20.1169444467
 O         3.0096782847       -0.6803245614      -20.1969048096
 C         5.1356601032        0.2890547067      -20.7274108557
 C         4.5500635654        1.6945653933      -20.3113154106
 C         4.1679401748        1.9250648368      -18.8071103603
 O         4.3056251537        1.0418205882      -17.9573440657
 C         3.4953785170        3.3201178470      -18.5566296805
 C         2.0710693972        3.4848519413      -19.3015700491
 O         1.9292792347        4.0129800981      -20.3902496327
 C         0.9277377958        2.8062316685      -18.4851816775
 C        -0.2366796203        2.3168312225      -19.2459720747
 C        -0.0977902642        0.8067648880      -19.6008768120
 O         0.7085148551        0.2629493311      -18.8766983638
 C        -0.7584561143        0.0483782881      -21.0153557816
 C        -1.0963353930       -1.4392387595      -20.5080731515
 O        -0.4447301261       -2.3518340953      -20.9226746327
 C        -2.2354836033       -1.6946491866      -19.5208043877
 C        -2.4139570299       -3.1521436688      -19.1883495923
 C        -1.4083344653       -3.5489615759      -18.1258532267
 O        -0.5031520384       -2.7644808475      -17.7612226353
 C        -1.6290620696       -4.7189142297      -17.1334780422
 C        -2.4780039721       -3.9992153935      -15.9584877164
 O        -3.3963365056       -3.3340867529      -16.3677053038
 C        -2.0595847817       -4.0791251346      -14.4252665677
 C        -2.5065067581       -2.8950154483      -13.4961843976
 C        -2.4704722015       -3.2404380824      -12.0261229654
 O        -2.0668644008       -4.2999486263      -11.5746184045
 C        -3.1207348872       -2.1168204453      -10.8986754034
 C        -3.0481854667       -2.7227158258       -9.4361087857
 O        -2.7282767066       -2.0079721362       -8.5137232185
 C        -3.5858633590       -4.1420918846       -9.2135033822
 C        -2.4385413994       -5.1350049371       -8.9039192849
 C        -2.1121488639       -5.0151689376       -7.4490644199
 O        -2.9763578602       -4.4419076742       -6.8064960478
 C        -0.6854244724       -5.3430841335       -6.9658316848
 C         0.2496794019       -4.0123747664       -7.4496342911
 O         0.5759001872       -3.8838105928       -8.5781532761
 C         0.4974433633       -2.8638396237       -6.4705096626
 C         0.8450287458       -1.5165960915       -7.1770246117
 C         1.6217366271       -0.5616533948       -6.1228932166
 O         2.3971393449       -0.9846358358       -5.2768191454
 C         1.2103844389        0.9364554560       -6.1164298576
 C        -0.3068315413        1.0822690328       -5.7775205536
 O        -1.1764635865        1.4363984613       -6.5125847491
 C        -0.5970310159        0.7392082567       -4.2948358527
 C        -2.0114619915        0.9913220290       -3.9449522072
 C        -3.0510483465       -0.1118758510       -4.2386803216
 O        -2.7252260184       -1.1827964371       -4.6904085959
 C        -4.5178542616        0.2324962834       -4.0293108007
 C        -5.3251474497        0.3473810262       -5.4180268163
 O        -5.0925950222       -0.4994610948       -6.2336190870
 C        -6.3614212329        1.4817665869       -5.6368667454
 C        -7.2646537413        1.1704120994       -6.8579475106
 C        -8.4594465777        0.2748497061       -6.4612156820
 O        -8.7898839398        0.1237003394       -5.3049047763
 C        -9.3660775413       -0.4001069736       -7.4915009813
 C        -8.6549363070       -1.8330324920       -7.9721934244
 O        -8.2996624773       -1.9991748084       -9.1275205499
 C        -8.5331543400       -2.9196532524       -6.8658140716
 C        -7.4379128183       -3.9754014516       -7.0879026224
 C        -6.5213815378       -4.0954610607       -5.8179942284
 O        -5.6086914040       -3.3107443541       -5.5974272047
 C        -6.7071205403       -5.2466108287       -4.8756381675
 C        -8.3275397341       -5.4915918967       -4.6167442425
 O        -8.9856571182       -6.1706468761       -5.3724675051
 C        -8.9068404812       -4.9210071176       -3.2553833357
 C       -10.4001952314       -5.1824890180       -3.1272754705
 C       -11.3048648643       -3.9712589155       -3.8719973311
 O       -10.7971775714       -3.2178313151       -4.6361177051
 C       -12.7434437603       -3.5642764850       -3.2943686249
 C       -12.2968747731       -2.6585149337       -2.0077239635
 O       -12.3277841406       -3.0722121480       -0.8959866860
 C       -11.8660656492       -1.1775509644       -2.2875399576
 C       -11.7386554076       -0.4756082694       -0.9289171248
 C       -10.7619330826        0.7864936362       -0.9151482028
 O       -10.7224637916        1.4513312527       -1.9218751492
 C        -9.7330796316        0.8375182007        0.2822632416
 C        -8.9002226451        2.0717048413        0.3780402474
 O        -7.9434773191        2.1791421966       -0.3688642769
 C        -9.2793634079        3.2862811107        1.3172739813
 C       -10.6730998795        0.5741526467        1.5525363296
 C        -8.8756900408       -0.4943009395        0.1390563958
 C       -13.5154147917       -2.5965083837       -4.2190388142
 C       -13.5545804233       -4.8738560832       -2.7894322181
 C        -6.0711118635       -6.5499590334       -5.4367280863
 C        -6.0764535235       -5.0435290293       -3.5448631104
 C       -10.7561704112       -0.8001775948       -6.8521961925
 C        -9.5604740519        0.4693374565       -8.8443664241
 C        -5.2161757806       -0.8738764571       -3.2147913397
 C        -4.7533895492        1.5364252370       -3.2352768351
 C         2.0828298114        1.7460715080       -5.1066071975
 C         1.4902667405        1.5150525857       -7.5104928518
 C        -0.6416367790       -5.4839021146       -5.4291344666
 C        -0.1175848751       -6.5758419829       -7.7479535442
 C        -2.2997967333       -0.8347929022      -11.0811841394
 C        -4.6890748508       -2.0790336243      -11.2063896682
 C        -2.5814879354       -5.8189787190      -17.8043761898
 C        -0.4258237132       -5.5310957094      -16.6559526741
 C        -1.9786222300        0.8978023261      -21.5132509406
 C         0.4084047110        0.0712944089      -22.0337861723
 C         3.4583688608        3.4097640960      -16.9896533640
 C         4.3131470856        4.5677464987      -19.0832002785
 C         4.4544764080       -1.9682694487      -17.9002479841
 C         6.4865194378       -2.2821496630      -19.4823731676
 H         5.1115434340       -5.0783428112      -21.0491420052
 H         5.7843720197       -3.5353222744      -21.4653329214
 H         4.1846860506       -3.9324046850      -22.0588434635
 H         5.1448891896        0.0966201262      -21.7953403959
 H         6.1668764799        0.1750996257      -20.4019402742
 H         3.8464219894        2.0872982567      -20.9504248453
 H         5.3625136344        2.4374668957      -20.5357196880
 H         0.6819887289        3.4226551717      -17.6282632955
 H         1.3995144055        1.8721465059      -18.1828247343
 H        -0.3596472138        2.8664841317      -20.2362506506
 H        -1.1857796462        2.5473569597      -18.7387570380
 H        -3.2423097957       -1.4509686710      -19.8976805278
 H        -2.1292585507       -1.1497459192      -18.5866985094
 H        -2.2018868349       -3.6789264768      -20.1443099289
 H        -3.4583539557       -3.4449808099      -19.0311720556
 H        -0.9577823751       -4.2429131074      -14.3540552111
 H        -2.4860008809       -5.0593017252      -14.1411954451
 H        -3.5289311592       -2.5509510223      -13.8716344300
 H        -1.7494903492       -2.0062033672      -13.7573454868
 H        -4.0994386267       -4.4587742437      -10.1172037693
 H        -4.2327548779       -4.1500828679       -8.3362370747
 H        -1.6139918752       -4.8008212371       -9.5139517007
 H        -2.5612032078       -6.1689433803       -9.2125074732
 H         1.3822893397       -3.0829001108       -5.8830050224
 H        -0.4283310435       -2.6397525715       -5.8631583490
 H        -0.0205140874       -1.0876875515       -7.5448811680
 H         1.6136327227       -1.6877186845       -7.9400352477
 H         0.0841723071        1.4583609054       -3.7942838627
 H        -0.2152499279       -0.2541479122       -4.1273979889
 H        -2.3953138060        1.9125977110       -4.4598625849
 H        -1.8936250809        1.2280884517       -2.8388267489
 H        -5.9643863416        2.4545871227       -5.7097704806
 H        -7.0331263801        1.4520080000       -4.7374293694
 H        -6.6289278402        0.8928397820       -7.7159673623
 H        -7.7675649413        2.0794500051       -7.1171374809
 H        -9.4772002820       -3.5159343918       -6.8225617105
 H        -8.5366675847       -2.3713544802       -5.8994530303
 H        -6.8353988472       -3.7227844059       -7.9158471201
 H        -7.8746860527       -4.9268612189       -7.3154062210
 H        -8.5550287793       -3.8787089597       -3.1935859373
 H        -8.2961523702       -5.2981239720       -2.3945754606
 H       -10.5834796926       -5.2305768717       -2.0614092883
 H       -10.7619130500       -6.1502907534       -3.3998631722
 H       -12.6887567953       -0.6623284388       -2.7969977370
 H       -10.9708468755       -1.2280426741       -2.8878135288
 H       -11.4520490286       -1.1937578485       -0.1649004929
 H       -12.7122538814       -0.1586882259       -0.6255404039
 H        -9.2851717286        2.9817098992        2.3395697764
 H       -10.0202251719        3.9980872448        0.8459074029
 H        -8.3317492080        3.8744281659        1.3765017811
 H        -9.9574086255        0.4547061998        2.4400959525
 H       -11.3675860657       -0.2596192871        1.3824170178
 H       -11.3550295084        1.4253082391        1.7599989678
 H        -9.4943323253       -1.3117163784       -0.1872774842
 H        -8.4463407451       -0.7573638246        1.1699469837
 H        -7.9637922773       -0.4954010678       -0.4543697846
 H       -13.8382425377       -3.0511819723       -5.0607738533
 H       -13.0205513730       -1.6964061804       -4.5568338187
 H       -14.2932862273       -2.2810480324       -3.5497521345
 H       -14.5379725611       -4.6242012792       -2.3052568760
 H       -12.9320928151       -5.4989934878       -2.0931756395
 H       -13.9664016973       -5.5362107707       -3.6138252302
 H        -6.4329587745       -6.6566772065       -6.4471312624
 H        -6.5214433200       -7.4174886656       -4.8324830536
 H        -4.9828940331       -6.6295731456       -5.5493727584
 H        -5.0092150722       -4.7637433459       -3.7186539374
 H        -6.2453687768       -5.9045389898       -2.9015129030
 H        -6.4883345633       -4.1496192951       -3.1207049134
 H       -11.3514878040       -1.4534863498       -7.4396982688
 H       -11.2441897472        0.1012513644       -6.7448944917
 H       -10.5533012373       -1.3102383314       -5.9044486666
 H        -8.7021162975        0.4598039543       -9.5172074161
 H        -9.6066760518        1.5015641044       -8.5431051909
 H       -10.4197647240        0.1499751148       -9.3634788782
 H        -6.1421968320       -0.4647796771       -2.8294235387
 H        -4.6068275722       -1.1107492682       -2.3541373413
 H        -5.4915600978       -1.6373320463       -4.0239311135
 H        -4.4324368575        1.3960408166       -2.2093183494
 H        -5.7550244764        1.7715847523       -3.2439505627
 H        -4.2763872056        2.3851310250       -3.7277251962
 H         3.1971782841        1.6908902108       -5.5219845433
 H         2.0576734033        1.3249620792       -4.0234969479
 H         1.8470783525        2.7951448800       -4.9668116956
 H         1.0872529002        0.8546838219       -8.2061882026
 H         2.5737248896        1.6037669303       -7.6647619600
 H         1.0882247318        2.5540342205       -7.5980342179
 H         0.3522627615       -5.3972217522       -5.1358609163
 H        -1.1474946265       -6.3949003983       -5.0362978512
 H        -1.1489361331       -4.6577396238       -4.8279448296
 H        -0.3259788896       -6.4311110445       -8.8343551305
 H        -0.3555425492       -7.5505813715       -7.3704067050
 H         1.0106682028       -6.5545703052       -7.8194985233
 H        -2.1214265696       -0.6342426435      -12.1354696775
 H        -1.3937902386       -1.0175110006      -10.6505969649
 H        -2.7318103599       -0.0672268231      -10.4618921087
 H        -4.9717688049       -2.0005034537      -12.2155758935
 H        -5.1847324592       -1.3594558995      -10.5462701262
 H        -5.1154463751       -3.0089273670      -10.8953614248
 H        -3.6168748962       -5.6453360188      -17.6489226171
 H        -2.4642081220       -6.8230440519      -17.2709092765
 H        -2.3067025041       -5.8353225721      -18.8381823063
 H         0.1158805316       -5.9824677344      -17.5076210437
 H        -0.7981506773       -6.3738654442      -16.0370233893
 H         0.2200700221       -4.8637070126      -16.0627834171
 H        -2.4430855315        0.6179324555      -22.5168685140
 H        -1.5766251040        1.9328274059      -21.6578467129
 H        -2.6170928944        0.8252659762      -20.5825392465
 H         0.7904671564        1.0722163822      -22.3095994477
 H         0.0568012401       -0.2899697688      -22.9497922014
 H         1.2349965263       -0.5890034988      -21.7011482544
 H         4.2950787444        2.7567826006      -16.5077056090
 H         2.4824856852        3.1528580496      -16.4787802814
 H         3.7488635848        4.4200500856      -16.7768628760
 H         3.6459332735        5.4051359907      -18.7544021225
 H         4.6099068439        4.6236357368      -20.2038880234
 H         5.2390134168        4.7704996157      -18.5626345594
 H         5.0516736223       -1.3039962391      -17.4042861089
 H         4.6108428786       -2.9294894275      -17.4116035328
 H         3.3915925032       -1.6069348954      -17.8954746801
 H         6.8010472339       -2.5495170509      -20.4881512766
 H         6.7932066958       -2.9865591218      -18.6915603787
 H         6.8863965056       -1.3362073899      -19.0881604916
 Na        1.4546159975       -1.9419446728      -18.9324713334
 Na       -3.5093784113       -2.2422178657       -6.3315800914
