232

 C         4.8069485786       -3.9670679118      -20.9095073709
 C         4.1280724948       -3.1131981660      -19.8784019178
 O         2.9341445549       -3.3565452404      -19.7355641965
 C         4.7685225161       -1.9453945075      -19.1608728601
 C         4.1079359858       -0.6641176949      -19.7822275437
 O         2.8674322390       -0.5146654433      -19.7841613223
 C         5.0210894751        0.4542400228      -20.4699032860
 C         4.3204913898        1.8447226141      -20.2921808081
 C         4.0433603088        2.0556155123      -18.7999020845
 O         4.2618108039        1.0964050976      -18.0765226072
 C         3.3291650118        3.3670244691      -18.4003310652
 C         1.9050828636        3.3047283795      -19.1506602378
 O         1.9337299084        3.5709347882      -20.3511020202
 C         0.6413560806        2.9140969291      -18.4186210917
 C        -0.2864576073        2.2700790278      -19.4998683325
 C        -0.3095234738        0.7746751103      -19.5429981377
 O         0.2016469605        0.1239688742      -18.6689276788
 C        -0.8210130027        0.0858984918      -20.9470641344
 C        -1.2477843451       -1.5096897708      -20.6159613060
 O        -0.4383647087       -2.3722615131      -20.4106773594
 C        -2.6527993137       -1.7036453364      -19.9750498329
 C        -2.6960262302       -3.0163129785      -19.1890891072
 C        -1.5836812245       -3.3353256803      -18.1462903425
 O        -0.5040823565       -2.7277736823      -18.0514411083
 C        -1.7834599222       -4.5425798254      -17.1304718558
 C        -2.3608334284       -3.8548838871      -15.8996872833
 O        -3.4221007347       -3.2470700908      -15.9827427000
 C        -1.6338511815       -3.8757685090      -14.5686181796
 C        -2.6155250142       -3.2167491866      -13.6034027628
 C        -2.2628254871       -3.3981509770      -12.1661860343
 O        -1.5926288956       -4.3297578990      -11.7679906980
 C        -2.9771407414       -2.3707345767      -11.1787973438
 C        -3.0523978288       -2.9922555752       -9.6411064523
 O        -2.6825519204       -2.2170701962       -8.7918916761
 C        -3.6045225006       -4.3486159268       -9.1729839677
 C        -2.4482078044       -5.3618804536       -8.6743252142
 C        -1.9635279680       -5.1213552587       -7.2179637785
 O        -2.6877293419       -4.7117766185       -6.3069052273
 C        -0.4581863316       -5.4004848048       -6.8950868711
 C         0.4816843773       -4.1085023045       -7.5221604911
 O         0.8643678543       -4.1533493264       -8.6270326759
 C         0.4931390822       -2.8596198034       -6.5646530718
 C         0.9281135467       -1.5270782639       -7.2473015626
 C         1.6193168200       -0.5960673119       -6.1565197334
 O         2.5155834783       -1.1082418322       -5.4893480624
 C         1.2243476486        0.8774898413       -6.0071525093
 C        -0.2742585160        1.0697386557       -5.5901835628
 O        -1.1561085526        1.4005408379       -6.3585794878
 C        -0.5645594293        0.7893981983       -4.0332708054
 C        -2.0452074363        1.1999015850       -3.8591723545
 C        -3.0293312441        0.2299222790       -4.5502435495
 O        -2.6616197685       -0.7009674558       -5.2089526378
 C        -4.6327162447        0.3550967517       -4.2332685131
 C        -5.3451590626        0.3998263241       -5.6665176684
 O        -5.2650109934       -0.5657928699       -6.4212398737
 C        -6.2380427835        1.6330534451       -6.0038454554
 C        -7.3738801389        1.2234155721       -6.9588007367
 C        -8.4858899208        0.3598880123       -6.4183218743
 O        -8.3921321072       -0.0761460277       -5.2770351292
 C        -9.4171193154       -0.3445246563       -7.4752655619
 C        -8.6933476938       -1.6805593458       -7.6488987986
 O        -8.2302400946       -1.8391782922       -8.7566678824
 C        -8.5472840565       -2.6245125223       -6.4910729580
 C        -7.6943631378       -3.8329712856       -6.8391330485
 C        -6.5959052263       -4.1146314029       -5.7229455290
 O        -5.5493534313       -3.5421830330       -5.7006329237
 C        -6.8344752438       -5.3440976524       -4.6764419968
 C        -8.3041116264       -5.5611599487       -4.3779822100
 O        -8.9066517296       -6.3763939991       -5.0564594579
 C        -8.9938129787       -4.8617558417       -3.1722853217
 C       -10.4767591120       -5.0106883636       -3.2706739768
 C       -11.3039598946       -3.9053963890       -3.9016129906
 O       -10.7900758869       -3.2112206081       -4.7075607960
 C       -12.6735920691       -3.6489043181       -3.3927829131
 C       -12.2565296048       -2.5965854274       -2.1328253929
 O       -11.9739732307       -3.1886363691       -1.1427502465
 C       -12.0255219044       -1.0716999311       -2.2435347082
 C       -11.7373202762       -0.3692649138       -0.8646174222
 C       -10.5847329029        0.7129700642       -1.0136734862
 O       -10.5881298204        1.5642888202       -1.8872022467
 C        -9.6588146476        0.7777945069        0.1926440627
 C        -8.5996718383        1.9885039132        0.1810965528
 O        -7.5984944864        1.8628677456       -0.4879149285
 C        -8.9361347276        3.4200771444        0.8021138315
 C       -10.6308809737        0.7986740507        1.5554635333
 C        -8.7701804919       -0.4772501914        0.4014081120
 C       -13.4989719867       -2.9753670745       -4.5379667368
 C       -13.3789904791       -4.9544357970       -2.8309916705
 C        -6.2824870902       -6.5312257111       -5.4161733374
 C        -6.0675657324       -5.1421278502       -3.3986041805
 C       -10.9078613876       -0.5107682707       -6.8934901577
 C        -9.4637325072        0.3594657456       -8.8473938182
 C        -5.0847055403       -0.9862000360       -3.4909614033
 C        -5.1666873874        1.5067561052       -3.4031483760
 C         2.3549801657        1.4805815008       -5.1192641922
 C         1.3909058751        1.5724537251       -7.3759116036
 C        -0.1883925866       -5.6008543756       -5.3934214042
 C         0.0858812710       -6.6270057454       -7.7714495234
 C        -2.1568711490       -1.0675004908      -11.1351747113
 C        -4.4094116417       -2.0624920200      -11.5687080428
 C        -2.7641490324       -5.6789889103      -17.6045186169
 C        -0.3363993070       -5.0522993696      -16.8921450818
 C        -2.1255028959        0.8368121831      -21.4295496988
 C         0.2764228513        0.0286022569      -21.9678442849
 C         3.3021165475        3.7475158075      -16.9059662324
 C         4.1374066162        4.5434923040      -19.0758729782
 C         4.4247366612       -2.1474743656      -17.6463609788
 C         6.3337578770       -1.9012885933      -19.3265925073
 H         5.5069980016       -4.6314159307      -20.4295779159
 H         5.5263627832       -3.3709643681      -21.5103498506
 H         4.0760785643       -4.4940514869      -21.5562254427
 H         5.2772014717        0.2652090280      -21.4886228405
 H         5.9876857674        0.4487799163      -19.9014858065
 H         3.4811035373        2.0759501060      -20.9010064393
 H         5.0119090966        2.6443956589      -20.7592077505
 H         0.1050274379        3.7917027274      -18.0417894570
 H         0.9018716817        2.2095368259      -17.6136695157
 H        -0.0611448563        2.7776350619      -20.4204306063
 H        -1.3255259147        2.5599907372      -19.2435695548
 H        -3.5169000419       -1.6643337210      -20.6075937223
 H        -2.9190005275       -0.9569782725      -19.1913453117
 H        -2.8314399231       -3.8665269382      -19.8071502512
 H        -3.6947181136       -3.0501055686      -18.6233756581
 H        -0.6457699868       -3.4613427400      -14.7557400691
 H        -1.3042395345       -4.8893594104      -14.1699351223
 H        -3.5297020519       -3.7408244315      -13.7265073269
 H        -2.5681223754       -2.1909280991      -13.9458274844
 H        -4.1796827006       -4.8651090166       -9.9178565088
 H        -4.2763183457       -4.0849395719       -8.3443573574
 H        -1.6124084260       -5.1516621884       -9.3457656689
 H        -2.7045242876       -6.4281041121       -8.8993531702
 H         1.2087624147       -3.0148495083       -5.7607976386
 H        -0.5748693539       -2.6777616248       -6.2950923072
 H         0.0597974809       -1.0341416727       -7.7399877443
 H         1.7553042887       -1.7780958377       -8.0169231022
 H         0.1894488224        1.4570596630       -3.4574818787
 H        -0.2439654258       -0.2526291516       -3.8907041288
 H        -2.2074485976        2.1713955967       -4.1683242428
 H        -2.3073883959        1.2978826092       -2.7663659788
 H        -5.7727725782        2.4898922796       -6.4472136430
 H        -6.7915194281        1.9025747486       -5.0744353846
 H        -6.9216403024        0.6156233658       -7.8328736174
 H        -7.7271395914        2.1640555975       -7.3278204179
 H        -9.5911293402       -2.9388237374       -6.1825133944
 H        -8.2331915339       -2.1187851732       -5.5884094278
 H        -7.2606944717       -3.8468834361       -7.8993248261
 H        -8.3093440890       -4.7658550404       -6.8904702379
 H        -8.5931375813       -3.8869690837       -3.0201876702
 H        -8.5537660831       -5.4009077394       -2.3912685008
 H       -10.8167605370       -5.1914518404       -2.2161332168
 H       -10.6783505724       -6.0097120515       -3.6880467607
 H       -12.9788462150       -0.6477334280       -2.5900951173
 H       -11.1651662998       -0.9708113557       -2.8781738996
 H       -11.4354148231       -1.1050099194       -0.1039613292
 H       -12.6221097484        0.2787181262       -0.5484413013
 H        -8.3573220873        3.4552803870        1.6942309938
 H       -10.0074342178        3.6922911932        0.8408946515
 H        -8.5000267175        4.1373802617        0.0985890978
 H        -9.9894391667        1.1577628863        2.3006302489
 H       -10.9766460374       -0.1433912453        1.7586879110
 H       -11.4941033164        1.3919883011        1.5523532943
 H        -9.3717826606       -1.3560629838        0.5688018403
 H        -8.1445416941       -0.3262819718        1.2852930439
 H        -7.9723023295       -0.6518124027       -0.2671182223
 H       -13.8622564544       -3.8030460588       -5.1633322759
 H       -12.9893114863       -2.1449096795       -5.1945598321
 H       -14.3427321755       -2.4827973579       -4.0247357269
 H       -14.3988107588       -5.0371847533       -2.8074601970
 H       -13.0511757249       -4.9700220952       -1.7993498634
 H       -13.1063346094       -5.7964832378       -3.3985008647
 H        -6.9251738366       -6.6505851215       -6.2924899722
 H        -6.3259452820       -7.3895105868       -4.7743264611
 H        -5.3172570451       -6.4634562116       -5.7836081211
 H        -5.0393155478       -5.0055992479       -3.6742985510
 H        -6.2171553223       -6.0582145236       -2.7807801859
 H        -6.3199805822       -4.2308973734       -2.9247408815
 H       -11.5188602567       -0.9660082383       -7.7066659132
 H       -11.3888297334        0.4666673265       -6.7363631393
 H       -10.8631306557       -1.3060995078       -6.1318758825
 H        -8.3643703140        0.4389282382       -9.1640681051
 H        -9.9132785084        1.3316480062       -8.9208066183
 H        -9.9870483641       -0.3122672068       -9.5666616839
 H        -6.1337372398       -0.9306145627       -3.4962692421
 H        -4.8767349883       -0.7911708117       -2.4242641508
 H        -4.5165563794       -1.8703216333       -3.9967647070
 H        -4.7600489380        1.5839989906       -2.3733514729
 H        -6.2414937854        1.3923537439       -3.3034287466
 H        -5.0080365482        2.5187898894       -3.9536201141
 H         3.3184432482        1.6665774506       -5.6469613510
 H         2.7744069108        0.8582061516       -4.3408837788
 H         2.0387760285        2.3308862506       -4.6544836292
 H         0.5546617232        1.3171122231       -8.0462681397
 H         2.3977382810        1.4390316575       -7.8251323260
 H         1.4001254342        2.6412660560       -7.2171125075
 H         0.7519349732       -5.9924442355       -5.1423402309
 H        -0.9424370541       -6.2924298501       -5.0037057978
 H        -0.1474554693       -4.6090069455       -4.8470893113
 H         0.0859171631       -6.3533854303       -8.7763748841
 H        -0.5026508721       -7.4818946809       -7.6175591277
 H         1.0891682792       -6.9302981283       -7.5778807800
 H        -2.6249519048       -0.5918925580      -12.0804506426
 H        -1.1226967441       -1.2982288135      -11.3780527752
 H        -2.2196965271       -0.4569881307      -10.2180296625
 H        -4.3995122891       -1.6204004184      -12.5945755387
 H        -5.0767299593       -1.5387568313      -10.8869606775
 H        -4.8738681354       -3.0423417648      -11.7624578225
 H        -3.6465808041       -5.2351541936      -18.0425449576
 H        -3.1111622654       -6.2974664793      -16.7683659072
 H        -2.2347354418       -6.2474627555      -18.3297556517
 H        -0.0511640439       -5.6379610436      -17.7283300002
 H        -0.3981636300       -5.7587265718      -16.0663635367
 H         0.3336443647       -4.2769981598      -16.6122775537
 H        -2.7204901518        0.1397327686      -21.9498241384
 H        -1.9572599262        1.5470270774      -22.1495646289
 H        -2.7424962413        1.0533941518      -20.5255242064
 H         0.4438443448        1.0802511550      -22.4057878141
 H        -0.0043840047       -0.5416195798      -22.8473529520
 H         1.1993319924       -0.3503094538      -21.5571291204
 H         4.1923736196        4.4246185938      -16.7340549088
 H         3.4541805480        2.8300975220      -16.3253338432
 H         2.4030586724        4.1749008578      -16.6749242521
 H         4.0992373987        5.4459999723      -18.5345450360
 H         3.8895981721        4.6704134182      -20.1078145635
 H         5.1553904617        4.2527670164      -19.0408407335
 H         4.3689268977       -1.2527692531      -17.0701812419
 H         5.2972005425       -2.6735609648      -17.1955864456
 H         3.4987734252       -2.7768790953      -17.6012379156
 H         6.5737449829       -1.4217125265      -20.2595887595
 H         6.6713517016       -2.9306152727      -19.1764928324
 H         6.7174640902       -1.4058701056      -18.4861839077
 Na        1.3161054829       -2.1523455302      -19.0636491619
 Na       -3.7657065530       -2.4702107109       -6.4447433589
