232

 C         5.1373983544       -3.8929386653      -20.7421352310
 C         4.1133033279       -3.1536711106      -19.9002155958
 O         2.9325339018       -3.4471480490      -19.9063347143
 C         4.7028077458       -1.9360596894      -19.1327555481
 C         4.0616163757       -0.6164714792      -19.6826056442
 O         2.8931203269       -0.4113074682      -19.6124296564
 C         4.9649927474        0.4540001337      -20.1844758431
 C         4.3042859503        1.8103895915      -20.1364782251
 C         3.9903034114        2.2024815506      -18.7034659857
 O         4.1673571297        1.3757057695      -17.8148817383
 C         3.1601511179        3.5773614243      -18.5103731420
 C         1.8555282979        3.4003009912      -19.3550756923
 O         1.8870830267        3.3283559405      -20.5483286846
 C         0.6157395221        2.8100351702      -18.5220874362
 C        -0.4981029644        2.2496566742      -19.4076510224
 C        -0.4321669571        0.7620777883      -19.4988907723
 O         0.0487754954        0.0935475356      -18.5813062766
 C        -0.9151057719        0.1275046755      -20.7829253066
 C        -1.2043868253       -1.4487794999      -20.5200898212
 O        -0.4378194465       -2.3219700219      -20.9187214545
 C        -2.6356581344       -1.7948732480      -19.9998216113
 C        -2.9757845197       -3.0279655755      -19.0112928522
 C        -1.8032008441       -3.3208148907      -18.0791485283
 O        -0.9480763080       -2.4794771144      -17.9546844522
 C        -1.8400241783       -4.5382113750      -17.1390329465
 C        -2.4286868791       -3.7536370465      -15.9181176668
 O        -3.5713946059       -3.3708227031      -16.1543483101
 C        -1.7010324836       -3.6956491178      -14.5933480680
 C        -2.6919309128       -3.3292730675      -13.4424633380
 C        -2.1491896380       -3.5808714020      -11.9853275848
 O        -1.2879515900       -4.3638095786      -11.6864629160
 C        -2.9114112400       -2.5432029480      -11.0128710369
 C        -2.9583133957       -3.0245115748       -9.5528080062
 O        -2.9405114869       -2.2120373539       -8.6315312353
 C        -3.2899119987       -4.5371384886       -9.4029971892
 C        -2.3944590082       -5.4656929875       -8.5339945280
 C        -1.8562553247       -5.0852164987       -7.1533757939
 O        -2.4928020532       -4.4333168825       -6.3556553527
 C        -0.2743798767       -5.4499792450       -6.9544102964
 C         0.5507258698       -4.1496821161       -7.4808786430
 O         1.0837556229       -4.0623844733       -8.5725897343
 C         0.3851030849       -2.8766334224       -6.5291993743
 C         0.7493968486       -1.5375250941       -7.2499095170
 C         1.6236269792       -0.7878635165       -6.2403801501
 O         2.4221154048       -1.3704642191       -5.5324209796
 C         1.3750551903        0.8044300086       -6.0528201422
 C        -0.1857509446        1.0499642140       -5.5513186874
 O        -1.0236849967        1.4029129000       -6.3761227696
 C        -0.6784788312        0.9428635232       -3.9590063975
 C        -2.1977073366        1.1069239904       -3.8082793762
 C        -3.1500204507        0.2513149529       -4.6958306325
 O        -2.7004742844       -0.5115647681       -5.5757448792
 C        -4.6506489288        0.2416242462       -4.3228047015
 C        -5.3180767023        0.4224929431       -5.7969400549
 O        -5.2886664814       -0.5020069963       -6.5807184488
 C        -6.1627701638        1.7360291523       -6.1512052738
 C        -7.2741607121        1.3994475976       -7.2136056740
 C        -8.2541612471        0.4200644932       -6.5638575274
 O        -8.2819732262        0.3355878271       -5.3643084738
 C        -9.2865518371       -0.3711144645       -7.5038198645
 C        -8.5194969214       -1.7287781334       -7.6998848498
 O        -7.9806636946       -2.0478711425       -8.7346394949
 C        -8.4826026518       -2.7400766878       -6.4949515912
 C        -7.6285367864       -3.9907372189       -6.7776726550
 C        -6.6266496888       -4.2667225908       -5.7109446072
 O        -5.5944699354       -3.6152915100       -5.6082037355
 C        -6.8420620504       -5.5365353744       -4.6176165207
 C        -8.2955500647       -5.7392109719       -4.3182772293
 O        -8.9922812333       -6.4551904102       -4.9833738285
 C        -8.9839414398       -4.7691756793       -3.2516856866
 C       -10.5226341688       -5.0103295035       -3.0690343760
 C       -11.3717204308       -3.9550110407       -3.7232689049
 O       -10.7126464757       -3.2753502407       -4.5522101930
 C       -12.7679954647       -3.5814233470       -3.3157595669
 C       -12.3000849682       -2.6401655853       -2.1493500466
 O       -11.8186536758       -3.1007437556       -1.1208554570
 C       -12.1542799179       -1.1187780006       -2.3334574924
 C       -11.6653420755       -0.5104426746       -0.9986632824
 C       -10.5815302893        0.5740279346       -0.9965921646
 O       -10.3842968629        1.3630296754       -1.8770380329
 C        -9.7472718232        0.7066955806        0.3183063698
 C        -8.5592723300        1.9450095591       -0.0865247410
 O        -7.5322122287        1.5614205254       -0.6000539246
 C        -8.8580454016        3.3471398343        0.2501591293
 C       -10.3745450355        1.1164680926        1.5967917034
 C        -8.8339684938       -0.5387102331        0.4340404015
 C       -13.6096574318       -2.7834951091       -4.4318342027
 C       -13.5919642096       -4.6394959125       -2.7161676615
 C        -6.3106936905       -6.7622017806       -5.3912618868
 C        -5.8771335635       -5.1868588249       -3.4567653136
 C       -10.6531436257       -0.4636186387       -6.6499622148
 C        -9.6012671379        0.4602111530       -8.7607144335
 C        -5.1106238924       -1.1375410266       -3.6532171499
 C        -4.8993153413        1.4505351941       -3.4279257027
 C         2.2746517183        1.4464064132       -5.0237986773
 C         1.4042324472        1.4055915905       -7.4571321635
 C         0.1400805082       -5.5391308031       -5.4746465160
 C         0.1635301443       -6.6437209151       -7.7883207087
 C        -1.9434184796       -1.2555830438      -11.1064261409
 C        -4.4016193759       -2.2727089969      -11.4208132441
 C        -2.7820505324       -5.6699327871      -17.4288816919
 C        -0.3983029328       -5.1590063653      -16.9203992895
 C        -2.1933877446        0.7984428649      -21.3121844364
 C         0.1981759167        0.1906975503      -21.8420148487
 C         2.9191264994        3.5862093394      -16.8970354101
 C         3.9435504315        4.7823642405      -19.1108212572
 C         4.3489327628       -2.1602774675      -17.6135070368
 C         6.3348443176       -1.8002940920      -19.2003658991
 H         6.1302766821       -4.0762859382      -20.2619611529
 H         5.4794373042       -3.2007180202      -21.5284853954
 H         4.6888543773       -4.7368751207      -21.2355225950
 H         5.1592429560        0.1994660441      -21.2486508594
 H         5.8662358309        0.4219351173      -19.6478243205
 H         3.2849538441        1.7072749844      -20.6283086237
 H         4.7538380025        2.4603531566      -20.7999554517
 H         0.1705298089        3.4994938574      -17.7992592462
 H         0.9978103970        1.9674522549      -17.9238632106
 H        -0.1245392804        2.6105893782      -20.4218723343
 H        -1.4876556102        2.7038789640      -19.1883478807
 H        -3.4022657586       -1.7665662957      -20.8171610758
 H        -2.9635680509       -0.9821220281      -19.3563320314
 H        -3.3681173823       -3.8919406246      -19.6497557017
 H        -3.8035626139       -2.9025369120      -18.3584854892
 H        -0.7465850792       -3.1408464646      -14.6594271665
 H        -1.2490345265       -4.6426856820      -14.3875713558
 H        -3.6499615175       -4.0141355769      -13.4771239081
 H        -2.6956908644       -2.2774440880      -13.6262938166
 H        -3.3167089562       -5.0929094922      -10.3485094954
 H        -4.3084906300       -4.6668956388       -9.0683167362
 H        -1.5479741745       -5.7800592306       -9.1539889047
 H        -3.0086816375       -6.3381218587       -8.4945174055
 H         1.1759825255       -2.9451696489       -5.7252517037
 H        -0.6577608271       -2.8340122562       -6.2584104342
 H        -0.0877308649       -0.8887474401       -7.5372447746
 H         1.2635356126       -1.8700197362       -8.1042982147
 H        -0.0697904268        1.6137842031       -3.4481916523
 H        -0.3172879765       -0.0716390812       -3.7186199504
 H        -2.4659296070        2.2558966069       -3.9372970931
 H        -2.4903437006        1.0228217852       -2.7700470452
 H        -5.3810897600        2.3335893961       -6.6693027278
 H        -6.6193664642        2.2023760769       -5.3254636148
 H        -6.8531644420        0.8581878109       -7.9948314412
 H        -7.8011643269        2.3314487481       -7.5616069639
 H        -9.5070604994       -2.9374130461       -6.2752442709
 H        -8.1511518776       -2.2691346169       -5.5237676322
 H        -7.0947856907       -3.8363236389       -7.6734437192
 H        -8.1657762153       -4.8936582325       -7.0124619036
 H        -8.7641049510       -3.7213928127       -3.5903196545
 H        -8.2857518016       -4.8888414425       -2.3616800170
 H       -10.7845140706       -5.1981520970       -2.0539914702
 H       -10.7625549857       -5.9650028367       -3.5345821769
 H       -13.1240849475       -0.7513332670       -2.5315954231
 H       -11.3495781510       -1.0132936525       -3.0593250878
 H       -11.2555314059       -1.3156892459       -0.4020291651
 H       -12.4551269302       -0.0076609576       -0.5271152194
 H        -8.0232375117        3.8333762723        0.8637501838
 H        -9.8330300469        3.4053891217        0.7680367938
 H        -8.9999077796        3.8144558274       -0.7369529985
 H        -9.6200748606        1.4310984857        2.3051686250
 H       -11.0075604078        0.2901907576        2.0456230102
 H       -11.0105327689        2.0309763564        1.4237761916
 H        -9.3229242310       -1.4432644158        0.8187485629
 H        -7.9961508607       -0.4121174265        1.0685950062
 H        -8.3034080240       -0.7322529673       -0.5075825921
 H       -13.7665978069       -3.4753167186       -5.2880725247
 H       -12.9382474344       -2.0504567023       -4.6556757499
 H       -14.5478117109       -2.3118176290       -4.2162388630
 H       -14.6789629420       -4.4769133526       -2.5440255789
 H       -13.3515368878       -4.9286148591       -1.6964593491
 H       -13.5559596326       -5.4270144761       -3.4779064139
 H        -6.9629233393       -7.2573704550       -6.1488876152
 H        -6.0028990204       -7.4699180526       -4.6300681487
 H        -5.2895346737       -6.5068343311       -5.8097562773
 H        -4.8236988084       -5.2171901506       -3.7443989306
 H        -6.0653964695       -5.8941143657       -2.6812474671
 H        -6.0995950957       -4.1436387349       -3.1311118196
 H       -11.3706565351       -1.0905187782       -7.0963425819
 H       -11.0507356611        0.5369048058       -6.7316552766
 H       -10.4495102304       -0.7647209940       -5.6752447624
 H        -8.7614399305        0.9210754804       -9.1925090983
 H       -10.3464389045        1.2376553942       -8.4890276062
 H       -10.1658484381       -0.1005306636       -9.4959458690
 H        -6.2295835715       -1.0884406746       -3.6464364570
 H        -4.8287614300       -1.0780141309       -2.5884384826
 H        -4.5603776098       -1.8891536486       -4.1469806627
 H        -4.3751473148        1.2635767880       -2.5076195859
 H        -5.9769567730        1.5213453445       -3.1483898687
 H        -4.5561202020        2.3746527304       -3.7791199340
 H         3.3171250182        1.2886158690       -5.1766811629
 H         2.2768298424        0.9529077520       -4.0216532149
 H         2.0521047647        2.5925846899       -4.8148548789
 H         0.4839842563        1.0955725110       -7.9931754306
 H         2.2895605752        1.1885880330       -7.9991652759
 H         1.3813127462        2.4898940324       -7.4605920902
 H         1.2161562258       -5.2129703101       -5.2453583840
 H         0.1450544701       -6.5668026913       -5.1128782664
 H        -0.4168860606       -4.8263350203       -4.9270864349
 H         0.7169563280       -6.3887127383       -8.6963472600
 H        -0.6794404597       -7.3678999692       -8.1001166019
 H         0.8355222689       -7.2046290800       -7.1622594593
 H        -2.0513791300       -0.8900033745      -12.0591463628
 H        -0.9177056319       -1.5539534360      -10.8362215368
 H        -2.3360169055       -0.5459652018      -10.4024395653
 H        -4.4336598233       -1.5512427713      -12.2057865004
 H        -4.8892854235       -1.8268863526      -10.5897469667
 H        -4.9796062870       -3.1069270959      -11.7093693998
 H        -3.8394767701       -5.3565295941      -17.2522954519
 H        -2.4966112448       -6.4882572753      -16.8167203159
 H        -2.6950723054       -6.0268926674      -18.4732939139
 H        -0.1482171966       -5.6021687356      -17.9070159900
 H        -0.4663924405       -5.9841452127      -16.2056345430
 H         0.3562574757       -4.4245088046      -16.5586418894
 H        -2.4625924023        0.5153002462      -22.3908896779
 H        -1.9118043654        1.9008830569      -21.4321985938
 H        -3.1679856610        0.6272362244      -20.7467216075
 H         0.8042898833        1.0568996883      -21.9755689627
 H        -0.3238909942       -0.0301168563      -22.8064660329
 H         0.7874210167       -0.6558226750      -21.6773001499
 H         3.2446005127        4.5202854453      -16.4741927242
 H         3.5783514303        2.7800238327      -16.5068282876
 H         1.8325760364        3.2491952617      -16.6595523311
 H         3.3322955624        5.7137300260      -19.1607742737
 H         4.1456690533        4.4686531193      -20.1293704000
 H         4.9501212660        4.9280040411      -18.5472178482
 H         4.9278101209       -1.4197176744      -16.9669732039
 H         4.6516076720       -3.1268806925      -17.2553330714
 H         3.2986661766       -2.0504283562      -17.5665929296
 H         6.5934868054       -1.8527812751      -20.2480203032
 H         6.7503085511       -2.5530444861      -18.5433688115
 H         6.5809027094       -0.7637736649      -18.9092540484
 Na        1.2075551963       -1.7218714299      -19.2235133412
 Na       -3.7973585522       -2.2232643561       -6.6352151963
