232

 C         5.1490700825       -4.0138246392      -20.7939848413
 C         4.2086810698       -3.2078072724      -19.9553571110
 O         3.0079699247       -3.3407877756      -19.9731890758
 C         4.7419540246       -1.9467118759      -19.0798587670
 C         4.1633048288       -0.6397073352      -19.6225878384
 O         2.9162423607       -0.5177386460      -19.4896792515
 C         5.0332096590        0.5263390630      -20.2182121048
 C         4.3774711559        1.9111447202      -20.2234693148
 C         3.8978789945        2.2582135363      -18.7722091006
 O         4.1970345185        1.5543208398      -17.8249863192
 C         3.1094888276        3.5706142546      -18.5003918023
 C         1.7511479869        3.2131880318      -19.2552157689
 O         1.7529936050        3.3342449023      -20.4690717573
 C         0.5736762321        2.9137999260      -18.4943333874
 C        -0.5187151389        2.3305950010      -19.3999851448
 C        -0.5382644871        0.7219692240      -19.4678210171
 O         0.0219979531        0.1708946698      -18.5506245048
 C        -1.1219259863        0.0136712774      -20.8809879984
 C        -1.4345758265       -1.5278239405      -20.7331964404
 O        -0.5100320760       -2.3070087377      -20.9881779264
 C        -2.7332696078       -1.7762686866      -19.9441042786
 C        -2.8738302595       -3.1125717679      -19.1859509578
 C        -1.8337960117       -3.2610810968      -18.0958131068
 O        -0.9099585087       -2.4579325071      -17.9260798878
 C        -1.9022918391       -4.5765720476      -17.1328537972
 C        -2.5560166511       -3.9043120455      -15.8017587398
 O        -3.6229747958       -3.2871680074      -15.9700147445
 C        -1.7361180876       -3.7288134588      -14.5817417448
 C        -2.6936538285       -3.4032517281      -13.4598993508
 C        -2.1256307709       -3.5532302147      -11.9963129051
 O        -1.2578495393       -4.3362312782      -11.6734922725
 C        -2.7673956276       -2.5964166600      -10.9099380376
 C        -2.9066039487       -3.1651206303       -9.5618205249
 O        -2.9677037023       -2.3226013743       -8.6841537983
 C        -3.3663349493       -4.6033781311       -9.2989191312
 C        -2.2886873436       -5.4958650876       -8.5821035352
 C        -1.6721236753       -4.9118947941       -7.2477742762
 O        -2.2882640650       -4.2311574630       -6.4404895116
 C        -0.1697593566       -5.3860784714       -6.9684111944
 C         0.5435143431       -4.0855981611       -7.5631409691
 O         1.1315019155       -4.0615301841       -8.5691286752
 C         0.2806002309       -2.9393861823       -6.5714366844
 C         0.6792321087       -1.5445823931       -7.1075788430
 C         1.4816499465       -0.8045635260       -6.0582325877
 O         2.4224084690       -1.3847338289       -5.5168450953
 C         1.2282383400        0.7593168048       -5.9817911486
 C        -0.2482862415        1.0154874189       -5.6611638052
 O        -1.0589827056        1.4727579850       -6.4494776389
 C        -0.6102982944        0.8529182920       -4.1907232827
 C        -2.0867691613        1.0272131622       -3.9011326209
 C        -3.0397974087        0.1828316005       -4.7165734885
 O        -2.5629885366       -0.5099115664       -5.5750123837
 C        -4.6186304893        0.2866492458       -4.4028522232
 C        -5.3819345234        0.5097011892       -5.8232475652
 O        -5.3769723802       -0.4213630371       -6.6096466326
 C        -6.0695283725        1.7722958854       -6.2464299940
 C        -7.1373848274        1.4777389203       -7.2932158237
 C        -8.1847967676        0.5600441860       -6.6364506153
 O        -8.2711408862        0.4589748477       -5.4162167833
 C        -9.1948550255       -0.3266283351       -7.4214490680
 C        -8.5159710012       -1.8116699743       -7.7561399375
 O        -7.8854258697       -2.0638177421       -8.7453256410
 C        -8.4355150603       -2.7650990118       -6.5448838550
 C        -7.6323929879       -4.0235983848       -6.8106782179
 C        -6.6137037536       -4.3262263471       -5.7191944204
 O        -5.6118290970       -3.6917866693       -5.5342639820
 C        -6.7890404419       -5.5286072257       -4.6524299491
 C        -8.3538439216       -5.7285339566       -4.3596293979
 O        -9.0094310262       -6.5486467805       -4.9799237049
 C        -8.9993777431       -4.8343393292       -3.2164655921
 C       -10.5059900677       -5.0280340987       -2.9912020971
 C       -11.2236554587       -3.9254733506       -3.7670590248
 O       -10.8250054248       -3.1860318153       -4.6370039117
 C       -12.7232701182       -3.4647033442       -3.2363680844
 C       -12.2642865656       -2.5861969396       -2.0151363885
 O       -11.8885249668       -3.2977206671       -1.1021563304
 C       -12.1003916483       -1.0471682835       -2.1924509497
 C       -11.6859825619       -0.4335821928       -0.8356214851
 C       -10.5325875786        0.6534525698       -1.0101297344
 O       -10.3501629960        1.2751631131       -2.0458641864
 C        -9.5928230304        0.7615083721        0.2325284847
 C        -8.5784772628        1.7750488639       -0.2286666978
 O        -7.5335822532        1.4220604881       -0.6386076601
 C        -8.9082783087        3.2753804130       -0.0660977771
 C       -10.2491488364        1.2594668842        1.5574212561
 C        -8.9021809938       -0.6197070034        0.4672289464
 C       -13.5134710086       -2.6767823673       -4.3409006941
 C       -13.7162534756       -4.6014925226       -2.6264080532
 C        -6.3253352406       -6.8162428183       -5.3372633611
 C        -5.8575944605       -5.2091123276       -3.4755364986
 C       -10.3847229846       -0.6097255750       -6.4815330257
 C        -9.5739040229        0.3566172610       -8.7257322240
 C        -5.0776496901       -1.0471123467       -3.8345117895
 C        -4.9728601190        1.3733401319       -3.4266425995
 C         2.2278117906        1.4013245847       -5.0522993895
 C         1.5034227144        1.4155950669       -7.3589949308
 C         0.0403159756       -5.5887513198       -5.3986580936
 C         0.2220322213       -6.6238424800       -7.7913837554
 C        -1.9834684359       -1.3177560330      -10.9765833611
 C        -4.2621145390       -2.2728762268      -11.1254850459
 C        -2.7967352946       -5.7359019273      -17.6887311848
 C        -0.4210702796       -5.0867923169      -16.9414399195
 C        -2.3104184840        0.8236655001      -21.3929481256
 C         0.1646801726        0.2032593250      -21.7564042937
 C         2.7511232036        3.8975457591      -16.9846844685
 C         3.8571482524        4.8354882753      -18.9118035058
 C         4.2679540226       -2.0191482166      -17.5964611650
 C         6.3152859094       -1.9159441402      -18.9628827237
 H         6.0245074264       -4.2369889963      -20.2238362695
 H         5.5928562277       -3.4871452886      -21.6408620297
 H         4.6255548878       -4.8718417345      -21.1281175932
 H         5.3999029400        0.1784488387      -21.2001769284
 H         5.8819363475        0.5295780551      -19.4637214724
 H         3.6672613974        2.1286705891      -21.0523819897
 H         5.1940868260        2.6323195586      -20.4415123417
 H         0.2200433467        3.8327075141      -17.9936882825
 H         0.7189907600        2.1809015053      -17.6573375208
 H        -0.4678080741        2.8578210070      -20.3400321113
 H        -1.4518741473        2.5862884576      -18.8330206791
 H        -3.5891952843       -1.7023324686      -20.5898994241
 H        -2.9335298388       -0.9967217685      -19.1735520075
 H        -3.0538208746       -3.8976012940      -19.8968700395
 H        -3.7509615215       -3.2140546642      -18.5067701130
 H        -1.0122943906       -2.9875509409      -14.7897909522
 H        -1.0772526000       -4.5413950469      -14.3180645918
 H        -3.4442990476       -4.1814620468      -13.4023560245
 H        -2.8996309429       -2.4239385674      -13.7195752107
 H        -3.6251585326       -5.1692085189      -10.2303171838
 H        -4.3558741587       -4.6720576969       -8.7458237498
 H        -1.4636098132       -5.6035140648       -9.3033944554
 H        -2.7240954066       -6.5007032202       -8.5244183622
 H         0.8072045142       -3.1721078739       -5.6509972715
 H        -0.7545947448       -2.8636000567       -6.5196599862
 H        -0.2227755768       -0.9705086821       -7.3312687552
 H         1.1919414557       -1.6515190692       -8.0124282660
 H         0.0865863646        1.4961660858       -3.7260194429
 H        -0.2306329626       -0.1162671722       -4.0043695483
 H        -2.3986372848        2.0370895799       -4.0812785109
 H        -2.2888140553        1.0422459758       -2.8031902469
 H        -5.2104356444        2.4335346001       -6.6036680061
 H        -6.6707429319        2.1720736478       -5.4271029828
 H        -6.7711913457        0.9536387057       -8.1610446052
 H        -7.6852691303        2.3686421640       -7.5467853091
 H        -9.4305894947       -2.9846057390       -6.1735735432
 H        -8.0485391239       -2.2044540105       -5.7376214838
 H        -7.0612903945       -3.8999156800       -7.7031137678
 H        -8.2622008274       -4.8443110086       -7.0747067706
 H        -8.7862310382       -3.7344232071       -3.4486378163
 H        -8.3309795931       -5.0424159103       -2.3446981210
 H       -10.7477920787       -4.8497084919       -1.9334940759
 H       -10.8784294598       -6.0349608086       -3.1478922093
 H       -13.1289567210       -0.7339097889       -2.4276877201
 H       -11.2899822229       -0.9101528910       -2.9296439162
 H       -11.2475232363       -1.2194409721       -0.2844149490
 H       -12.5483695119        0.0336058411       -0.3642689732
 H        -8.0007997313        3.7730110507        0.3161624623
 H        -9.6902704396        3.4308203735        0.7261904649
 H        -9.2775417625        3.6985012923       -1.0188199761
 H        -9.5489199118        1.4015064116        2.4468796510
 H       -10.9728026178        0.4065754094        1.7750700966
 H       -10.8476266924        2.2509758339        1.4441800609
 H        -9.6800618417       -1.3239853067        0.8699630250
 H        -8.2076137523       -0.6192642019        1.2860778738
 H        -8.3077980515       -1.0621776235       -0.3516554762
 H       -13.6724949878       -3.3960231321       -5.1386216237
 H       -12.8494440276       -1.8324456120       -4.5963289321
 H       -14.4594449855       -2.3462203294       -4.1250316284
 H       -14.5518535806       -4.2589912141       -2.0372218738
 H       -13.2054706631       -5.0809235465       -1.7012401446
 H       -14.1252587205       -5.3532802248       -3.3963712763
 H        -7.0994615920       -7.1782232681       -6.1400230980
 H        -6.1128126051       -7.6088470168       -4.6280584474
 H        -5.3457152882       -6.6537394320       -5.8257315813
 H        -4.8167261383       -5.1878306167       -3.6990145311
 H        -6.0683435740       -6.0583554655       -2.7599502994
 H        -6.1877007991       -4.2557052105       -3.0280780173
 H       -11.0235363379       -1.3392768175       -6.9319253584
 H       -10.9405013582        0.3573762373       -6.4797024893
 H       -10.0486660181       -0.8323514542       -5.5075727616
 H        -8.7266945202        0.5801289396       -9.3760527223
 H       -10.0227292679        1.2421415237       -8.4750632716
 H       -10.3914412503       -0.0992103715       -9.2589101294
 H        -6.0352444496       -0.8979918529       -3.6417559174
 H        -4.5355839885       -1.2343119206       -2.9279214187
 H        -4.7380505181       -1.7872169784       -4.5547861645
 H        -4.4229653593        1.3021500811       -2.5608943743
 H        -5.9912372332        1.2840206259       -3.1337305463
 H        -4.7583603300        2.3858095424       -3.7852543056
 H         3.1817259990        0.9452359461       -5.2646855986
 H         2.2398400506        1.2126086212       -3.9926294452
 H         2.2888478385        2.4398862725       -5.1627088772
 H         0.7640456346        1.1314538406       -8.1732447097
 H         2.5252263973        1.1998492371       -7.6541153713
 H         1.4203616270        2.4491418293       -7.3130023194
 H         0.9597222564       -5.1579337317       -5.0036117062
 H         0.2007346877       -6.6087479143       -5.1917341641
 H        -0.7590982458       -5.0801556662       -4.8540543221
 H         0.6161100311       -6.3956851767       -8.8183289746
 H        -0.6036348479       -7.4129255968       -7.9373577905
 H         1.0760983723       -7.1139412205       -7.1751308644
 H        -1.8796418814       -1.0025741836      -12.0243436270
 H        -1.0895954254       -1.4413114331      -10.4090172540
 H        -2.6336302296       -0.6220076341      -10.5480082450
 H        -4.5046166374       -1.5670118013      -11.9642812249
 H        -4.6003814127       -1.7449299589      -10.2713316257
 H        -4.8790406927       -3.1596185807      -11.1899952834
 H        -3.8598335167       -5.3242704852      -17.5541853705
 H        -2.6275576732       -6.6228785951      -17.1061757970
 H        -2.6844682430       -6.0556316355      -18.7500916925
 H        -0.1948730273       -5.5102344811      -17.9213674032
 H        -0.3171593319       -5.8656567583      -16.1600400935
 H         0.2594150466       -4.2462534149      -16.7243069266
 H        -2.7339833270        0.3630530993      -22.3048510972
 H        -2.1059192927        1.8468360732      -21.6002453540
 H        -3.2259091757        0.6791573614      -20.6336299790
 H         0.6591353610        1.1839517700      -21.5343317876
 H        -0.0630925787        0.1968337006      -22.8360301558
 H         0.8406637235       -0.5446813839      -21.5508456212
 H         2.6808585510        4.9963524923      -16.9170091238
 H         3.4857697430        3.5381483663      -16.2834873878
 H         1.9014456774        3.4346513317      -16.7866886383
 H         3.0885405374        5.6369309128      -19.1213275673
 H         4.3173292171        4.6430579690      -19.8945035614
 H         4.6553180523        5.1612179204      -18.1488474734
 H         5.0044456674       -1.4521428233      -17.0061875139
 H         4.2056993480       -3.0100937473      -17.1463301672
 H         3.3146804054       -1.5723240293      -17.5375474655
 H         6.6661527409       -1.7687272670      -20.0184815351
 H         6.5506207837       -2.9137035399      -18.5361984122
 H         6.5907148267       -1.0420465944      -18.4350937418
 Na        1.1185118660       -1.7325643114      -19.2610907875
 Na       -3.8571013354       -2.2830189425       -6.6046040925
