232

 C         5.0657129764       -3.9787222842      -20.5554172815
 C         4.1564176352       -2.9850620163      -19.8163996639
 O         2.9348665200       -3.0308542084      -20.0139343986
 C         4.8034018914       -1.9134621978      -18.9426781354
 C         4.2630872234       -0.4948916270      -19.5768752029
 O         3.1130087051       -0.3450992502      -19.6389823666
 C         5.1825801024        0.6777631659      -20.0840957855
 C         4.4852763501        2.0150454658      -19.9930815672
 C         3.9510911010        2.3737496511      -18.5302927105
 O         4.2576783597        1.7238470266      -17.5520064330
 C         2.9516921291        3.6781969403      -18.4622186561
 C         1.5734177262        3.4293615584      -19.2639572537
 O         1.5295678154        3.2716824397      -20.4725857838
 C         0.2360838477        3.0607012097      -18.5058879854
 C        -0.9718833404        2.3790874253      -19.3424131012
 C        -0.6839213990        0.8622112778      -19.5301234886
 O        -0.1010267108        0.1346810947      -18.7287858597
 C        -1.1752462515        0.1504873288      -20.8728985161
 C        -1.5362255268       -1.2799957692      -20.6021466540
 O        -0.7620345814       -2.1727683029      -20.9175755653
 C        -2.8883223630       -1.7123764261      -19.9362675703
 C        -2.7094818719       -3.2070554626      -19.4492239605
 C        -1.7234445031       -3.3454077782      -18.2130548120
 O        -0.8241679133       -2.5505845231      -18.0675856135
 C        -1.9125778184       -4.4670588140      -17.1568765705
 C        -2.6359118894       -3.9452892753      -15.8886353426
 O        -3.7795711965       -3.5365181570      -15.9331805016
 C        -1.8205680840       -3.9815380642      -14.5074107051
 C        -2.7628380107       -3.5081975311      -13.3607034507
 C        -2.1786072347       -3.5862876415      -11.9634963789
 O        -1.2607198004       -4.2865917641      -11.6868005909
 C        -2.8677535092       -2.6443258493      -10.7474833546
 C        -3.0028189742       -3.1624356730       -9.2840618832
 O        -2.6913410664       -2.3570730019       -8.4170246319
 C        -3.4505037882       -4.6440163242       -9.0999271638
 C        -2.1665967753       -5.4830299561       -8.8066749462
 C        -1.6703985689       -5.1177338414       -7.4479687174
 O        -2.2350676689       -4.2540904024       -6.7860475620
 C        -0.1308849256       -5.4831445010       -6.9545437548
 C         0.6490787386       -4.0632494162       -7.3244506535
 O         1.1041065890       -3.9500601575       -8.4564052004
 C         0.4737008738       -2.8687266647       -6.3887861209
 C         0.6750763978       -1.4832097929       -7.0973325209
 C         1.5148046556       -0.6257563811       -6.1770527041
 O         2.1315804954       -1.2126022081       -5.3224632258
 C         1.4134277801        0.9620592126       -6.1177129818
 C        -0.0724651816        1.2051666791       -5.7254540440
 O        -0.9267749834        1.5683925879       -6.5095853535
 C        -0.6597630719        0.6689357448       -4.3018531755
 C        -2.1156711832        1.0475733846       -4.0574774946
 C        -3.1120975426        0.1666235491       -4.7452901545
 O        -2.6839013521       -0.7986610969       -5.3927605273
 C        -4.6406577995        0.3114501364       -4.5838469967
 C        -5.2132871699        0.5029001434       -5.9392792597
 O        -5.3083366112       -0.4435074412       -6.7081882974
 C        -5.8796020080        1.8017060734       -6.4459584138
 C        -7.0913081250        1.5470417160       -7.4014624393
 C        -8.0591525607        0.6247045415       -6.5584006060
 O        -8.0686140337        0.6339414447       -5.3574115728
 C        -8.9814319106       -0.3754724711       -7.3008748868
 C        -8.2279550542       -1.7252861288       -7.6872203461
 O        -7.7797996323       -1.9683211793       -8.7921031322
 C        -8.2268053934       -2.7790879404       -6.5793265575
 C        -7.4976689952       -4.1529980332       -6.9255583055
 C        -6.5550568980       -4.4791550039       -5.7551219118
 O        -5.5179259301       -3.8239463012       -5.6050863913
 C        -6.8839384630       -5.5660474454       -4.7239713607
 C        -8.4179410736       -5.7035921222       -4.3689711431
 O        -9.0870010742       -6.5242331744       -4.8973577783
 C        -8.9924049983       -4.9137060410       -3.1624106877
 C       -10.5202102844       -5.0457126764       -3.0712208759
 C       -11.2579046394       -3.8160064151       -3.7777045741
 O       -10.8420018665       -3.3059282220       -4.8405754655
 C       -12.6729198372       -3.3415666975       -3.0292538777
 C       -12.2163412994       -2.6169619184       -1.7783317519
 O       -11.9333801682       -3.1182656649       -0.6856468813
 C       -12.2320628569       -1.0360522150       -1.9729203439
 C       -11.8602091888       -0.2821954402       -0.6670991373
 C       -10.5785204360        0.4883440937       -0.9180594986
 O       -10.4261081209        0.9582431535       -2.0120476182
 C        -9.4789672506        0.7555215217        0.1890345590
 C        -8.4017590342        1.6923290520       -0.4872437647
 O        -7.2730775983        1.3337839052       -0.7183733947
 C        -8.7080884183        3.1891758076       -0.7977160459
 C       -10.3077797373        1.2872346437        1.3707763789
 C        -8.8436192388       -0.6066335123        0.5593998086
 C       -13.3936801700       -2.4506111801       -4.1390726566
 C       -13.5458639042       -4.6098061878       -2.7511583732
 C        -6.4016795405       -6.8603075308       -5.4082056008
 C        -6.1038015965       -5.4024935520       -3.3181075605
 C       -10.2449372016       -0.6992639925       -6.4423067591
 C        -9.4944449131        0.0790350203       -8.6812635802
 C        -5.0348168559       -1.0651886205       -3.8963202869
 C        -4.9110960606        1.4502848923       -3.6228514816
 C         2.2884658060        1.4111365709       -4.9311300436
 C         1.7628731962        1.4377426128       -7.5233182555
 C        -0.1762798390       -5.6765033618       -5.4058963481
 C         0.5145802508       -6.6295447289       -7.7579274023
 C        -1.9522445895       -1.4006396715      -10.7146156613
 C        -4.2879624464       -2.2584130210      -11.3158548611
 C        -2.8383994358       -5.5565923828      -17.8493135279
 C        -0.5284651979       -5.1083135043      -16.8794640996
 C        -2.4111561158        0.8108912051      -21.5051464255
 C         0.0076227272        0.2742238621      -21.8865589126
 C         2.7331837784        3.9225044746      -16.9207563297
 C         3.6012340676        4.8749876950      -19.3002057290
 C         4.1312511278       -2.1700405090      -17.5743686541
 C         6.3120358369       -2.0936321309      -18.7909864963
 H         5.8579694258       -4.5482644366      -20.0149356158
 H         5.6370276907       -3.3915669078      -21.2575892460
 H         4.4376681730       -4.6327638157      -21.1527955270
 H         5.3608183452        0.3625863616      -21.1207130156
 H         6.0666433799        0.6295522898      -19.5135919800
 H         3.6107912097        2.0489369871      -20.6693971279
 H         5.1250198484        2.8357442304      -20.3366881409
 H        -0.1648035524        3.9563736664      -18.0221711471
 H         0.3920571389        2.4282563267      -17.6339706053
 H        -0.9419878847        2.7960109175      -20.3581234667
 H        -1.8840918943        2.5286528674      -18.8181527758
 H        -3.8418009008       -1.5957311422      -20.4922211422
 H        -3.0761698717       -1.2210851137      -19.0148168961
 H        -2.0950888242       -3.6621711015      -20.2959688544
 H        -3.5697913405       -3.8291757776      -19.3694911154
 H        -0.8141558004       -3.4687851675      -14.5519327182
 H        -1.5282941424       -5.0021407674      -14.2222026634
 H        -3.6477163165       -4.1992438318      -13.2501408662
 H        -2.9252372202       -2.4725293052      -13.6304540014
 H        -4.0420658333       -4.9665588765       -9.9562788783
 H        -4.1058834562       -4.8343862508       -8.2726800960
 H        -1.3382674197       -5.3772117233       -9.5343636841
 H        -2.4135718173       -6.5630002868       -8.7765990712
 H         1.2996663697       -2.9814255692       -5.7001793354
 H        -0.5508310720       -2.8508142187       -5.9340933788
 H        -0.2832505519       -1.0191790495       -7.4171094764
 H         1.2362574446       -1.5619269213       -8.1037957613
 H         0.0471152800        1.0832369221       -3.5393063747
 H        -0.4525579599       -0.4453410718       -4.2845036359
 H        -2.3994538156        2.1297615646       -4.1305841048
 H        -2.2629973653        0.9836559104       -3.0125353715
 H        -5.1671068645        2.4070401793       -6.9675581854
 H        -6.3584683360        2.3047500976       -5.5995418172
 H        -6.7082833528        1.0067136925       -8.2841140884
 H        -7.6202200977        2.4877467010       -7.7191258495
 H        -9.2101189567       -2.9813807539       -6.1567306095
 H        -7.7215715639       -2.2337740655       -5.7259210742
 H        -6.9926451542       -4.1406423377       -7.9501821002
 H        -8.3494621671       -4.8917488218       -7.0578562144
 H        -8.7141857438       -3.9050056113       -3.3125092652
 H        -8.5308078230       -5.2396649643       -2.2289744828
 H       -10.7525015500       -5.1881146258       -1.9991514076
 H       -10.8679138766       -5.9839144564       -3.5846798482
 H       -13.2091830186       -0.6995170482       -2.3094256046
 H       -11.4046288901       -0.8351524238       -2.6615809758
 H       -11.6576016764       -0.9879831218        0.2002064609
 H       -12.6405870226        0.4740387360       -0.5079692085
 H        -7.8330503226        3.7392498365       -1.1564051925
 H        -8.8859979089        3.6674333923        0.1537843513
 H        -9.5585208671        3.2293527227       -1.4619855384
 H        -9.6720611629        1.5539576349        2.1547102423
 H       -10.9614362281        0.5284138313        1.7301884445
 H       -10.8263918295        2.1555221695        1.0881984495
 H        -9.5692178652       -1.3200073236        0.9108443110
 H        -8.0616869168       -0.6932847384        1.3480302766
 H        -8.4376839202       -1.0377585406       -0.3784307148
 H       -13.8473331577       -3.0795271323       -4.9263639790
 H       -12.6551232375       -1.7192525558       -4.4003390173
 H       -14.3401220260       -1.9551869089       -3.7131037340
 H       -14.2472695003       -4.3837134099       -1.9392265470
 H       -13.1120525002       -5.4704138513       -2.3629022160
 H       -14.1031983988       -4.8336709387       -3.6297527347
 H        -6.9609442878       -7.0115773211       -6.2710710154
 H        -6.5874151654       -7.7257428312       -4.7837571396
 H        -5.3325183530       -6.8152329215       -5.5920380103
 H        -5.0457569153       -5.2466196205       -3.6569419016
 H        -6.1314398892       -6.1868587972       -2.6115964318
 H        -6.4678474212       -4.4655295545       -2.8795946935
 H       -10.8299980046       -1.4953881894       -6.9950643806
 H       -10.8257109566        0.2376961295       -6.3689191724
 H        -9.9395805080       -0.9236810837       -5.3771081808
 H        -9.0059713992       -0.3119091937       -9.5543764963
 H        -9.6334245267        1.2112081492       -8.8214464364
 H       -10.5506890416       -0.1885429353       -8.7197497043
 H        -6.0470263453       -0.8052237200       -3.4184454065
 H        -4.1708940447       -1.2794348819       -3.2528868004
 H        -4.9756033452       -1.8381629914       -4.6442271489
 H        -4.5670005525        1.2516937705       -2.5612927603
 H        -6.0210296558        1.6036149470       -3.5004636021
 H        -4.4269276483        2.3629585674       -3.8903087219
 H         3.3246670125        1.2348684182       -5.0051935632
 H         1.9899293139        0.9156347394       -4.0329018909
 H         2.2357801546        2.5295032175       -4.6762939424
 H         1.2782251512        0.8697648056       -8.2951428679
 H         2.8331161558        1.2616579166       -7.6752103939
 H         1.4506509592        2.4949396319       -7.8066028885
 H         0.8685458725       -5.7680836310       -5.0258143046
 H        -0.5659659986       -6.6792728748       -5.1676281700
 H        -0.7443204987       -4.8999367766       -4.9376643435
 H         0.2224837476       -6.5601197172       -8.7803912687
 H         0.1268344023       -7.5838515990       -7.4756302347
 H         1.5397939838       -6.6280512987       -7.6589563650
 H        -1.7350261799       -0.9507017404      -11.6695280471
 H        -1.1035288931       -1.8903848469      -10.1689127223
 H        -2.4709095654       -0.6096095212      -10.0837449568
 H        -4.3995563581       -1.8308946744      -12.2968777701
 H        -4.6409028874       -1.3795133730      -10.6821511512
 H        -5.0556194353       -3.0534910650      -11.1188430267
 H        -3.7758875045       -5.2600785359      -18.2286943449
 H        -2.8448722109       -6.4758806016      -17.2680426488
 H        -2.2508049295       -5.8595697212      -18.7067576884
 H        -0.0444156696       -5.4032661254      -17.8002945355
 H        -0.6537520786       -5.8939052792      -16.1792459857
 H         0.0856631394       -4.3335031951      -16.4526460422
 H        -2.9192875906        0.1715810826      -22.1670027596
 H        -2.1940497676        1.8340034807      -21.9046551267
 H        -3.1254509140        1.0786711065      -20.8023066729
 H         0.2191196680        1.3389669748      -22.0056691034
 H        -0.1514583693       -0.2139762212      -22.8874940248
 H         0.9166947221       -0.1242833200      -21.3956434928
 H         1.7373982390        4.2182905455      -16.8134365390
 H         3.3700638587        4.7333185577      -16.6111788165
 H         3.0216702501        2.9541013954      -16.3634058562
 H         2.9658572838        5.7036519019      -19.1976787137
 H         3.5829739369        4.6962690708      -20.3544349440
 H         4.5719197552        5.0784529293      -18.9233033907
 H         4.4616923288       -1.4482675646      -16.7826478432
 H         4.3841967477       -3.1877295832      -17.2703317249
 H         3.0248126067       -2.1539356909      -17.6780523861
 H         6.8003142060       -1.7374948733      -19.6396790991
 H         6.4988331705       -3.1124624890      -18.6140435834
 H         6.4944744397       -1.3781943480      -17.9774565731
 Na        1.0187827592       -2.0992707207      -19.3430524422
 Na       -3.9909085202       -2.4364989811       -6.4559113815
