232

 C         5.0401543842       -3.9399985420      -20.5298441395
 C         4.1306583939       -2.9831132795      -19.8004463939
 O         2.9784610811       -3.0678869486      -20.1574022322
 C         4.6359157396       -1.8345001125      -18.8507709274
 C         4.0879651510       -0.4547044734      -19.3097410727
 O         2.9150564795       -0.2500351304      -19.7393187445
 C         5.1480016803        0.6716065318      -19.4563423710
 C         4.5063576178        1.9568663478      -19.8614016382
 C         3.8883283852        2.4306023289      -18.5297454665
 O         4.2134907574        1.8926493721      -17.4917268814
 C         2.7990090759        3.6294834321      -18.4713111900
 C         1.3678297441        3.1805246999      -19.2543873845
 O         1.3633341099        2.9920587477      -20.4600804859
 C         0.0809061956        2.9577733454      -18.3960763410
 C        -1.0489511593        2.4550780727      -19.3028793922
 C        -0.7772307791        0.9345416262      -19.6563942716
 O        -0.0108866428        0.2833534290      -18.9881553283
 C        -1.2172760977        0.3627959557      -20.9290661381
 C        -1.4604127616       -1.2517849697      -20.5925665498
 O        -0.5660009233       -1.9711667643      -21.0090910626
 C        -2.7152868507       -1.6440736754      -19.8604806053
 C        -2.7889135790       -3.0733914194      -19.2616332423
 C        -1.7425091353       -3.4093584958      -18.1935732177
 O        -0.7307745753       -2.7420077416      -17.9975106888
 C        -1.9558179365       -4.6605380963      -17.1315876861
 C        -2.7253420179       -4.0456758925      -15.8561828677
 O        -3.8670034432       -3.7392062451      -16.0475194753
 C        -2.1282783842       -4.3235601537      -14.4427472270
 C        -2.8250278923       -3.4999132571      -13.3455076416
 C        -2.2977698261       -3.5327415233      -11.9302058031
 O        -1.4122442973       -4.2862914907      -11.5587053100
 C        -2.8758218065       -2.5276485330      -10.9285723507
 C        -3.0418235922       -3.1698396076       -9.5023817017
 O        -2.8702804221       -2.4778275802       -8.5197448957
 C        -3.3572269719       -4.6714335979       -9.2388031804
 C        -2.1525975407       -5.4594939353       -8.8564368664
 C        -1.6825676537       -5.1702304628       -7.3603082098
 O        -2.4953507410       -4.7674539134       -6.5068536705
 C        -0.2176942061       -5.3989998769       -7.0586297593
 C         0.5953222196       -4.0487622172       -7.3676673494
 O         1.1970681793       -3.9488070230       -8.4315775298
 C         0.5676253596       -2.9356166852       -6.2742901575
 C         0.9510703410       -1.5515400655       -6.8366321071
 C         1.7231775805       -0.6031062928       -5.8797023895
 O         2.2143108771       -1.0596503134       -4.8780718564
 C         1.5036514454        0.9672724063       -6.1147839637
 C        -0.0733378261        1.2615553735       -5.8301899585
 O        -0.7228355176        1.8589052265       -6.6233191205
 C        -0.6412576303        0.7200885759       -4.5143773679
 C        -2.0811605284        1.0406371754       -4.3643423469
 C        -3.0469940286       -0.0228270529       -4.7323716752
 O        -2.6421733507       -1.0657582527       -5.1762125413
 C        -4.5764490929        0.3185719098       -4.6455527274
 C        -5.1031984845        0.3897716021       -6.1039616662
 O        -5.0484566559       -0.6417969483       -6.7695796005
 C        -5.6866287453        1.6550625197       -6.6801205541
 C        -7.0281147259        1.3850188065       -7.4540572389
 C        -7.9832398410        0.5194260451       -6.6557613764
 O        -7.9477957761        0.4939812285       -5.4265658056
 C        -8.9842648313       -0.4220049629       -7.3580289089
 C        -8.1770249133       -1.7443108253       -7.5652334146
 O        -7.4790648084       -1.9001186226       -8.5506342810
 C        -8.0983752447       -2.7482535169       -6.4107252684
 C        -7.3667923671       -4.0539634855       -6.7771951162
 C        -6.4183477835       -4.5976811217       -5.6740808550
 O        -5.2910875460       -4.1722267054       -5.5077326046
 C        -6.9525412631       -5.7453430706       -4.6923930065
 C        -8.5094168396       -5.7477535464       -4.4006641721
 O        -9.2506700278       -6.4654413642       -5.0604227985
 C        -8.9947587798       -4.9291081657       -3.2771228861
 C       -10.5282972985       -5.0233759431       -3.0156155499
 C       -11.2621550955       -3.8348085249       -3.7483054350
 O       -10.8558001958       -3.3858587656       -4.7663543825
 C       -12.6511088631       -3.2826523150       -3.0634709475
 C       -12.3111919602       -2.4577459396       -1.6717853935
 O       -12.0136664293       -3.1225888755       -0.7105035624
 C       -12.6034006989       -0.9824359553       -1.6087791181
 C       -11.7703512829       -0.2494944763       -0.5490174621
 C       -10.5033016682        0.4650405496       -1.0097174472
 O       -10.3985249092        0.7251625276       -2.1981003120
 C        -9.3583237022        0.8028532850        0.0766741183
 C        -8.2619323524        1.5304688208       -0.6367157365
 O        -7.0956920589        1.1701773805       -0.6575139879
 C        -8.7341646351        2.8554891138       -1.2340799347
 C        -9.9045032991        1.6886249748        1.3013079698
 C        -8.8210665153       -0.4918919886        0.6071892032
 C       -13.3692794002       -2.4116007126       -4.0728403236
 C       -13.4627628172       -4.5879155667       -2.7084186390
 C        -6.5846275546       -7.1361986502       -5.3698970273
 C        -6.0932142048       -5.4943594656       -3.4131179635
 C       -10.1907907957       -0.6222660694       -6.4054618102
 C        -9.4227575115        0.2879973808       -8.6430122545
 C        -5.4109783940       -0.7702736763       -3.7354263450
 C        -4.8937616370        1.5944850513       -3.8602164599
 C         2.3829826903        1.6844564856       -5.1282171278
 C         1.7722598802        1.6355654480       -7.5000078435
 C        -0.1763299314       -5.7234974765       -5.5761073260
 C         0.6055129370       -6.5419627421       -7.7573286553
 C        -1.8307108960       -1.2483655910      -10.9610352395
 C        -4.3598119696       -2.0750794699      -11.1651015431
 C        -2.8785998544       -5.7606967613      -17.6855037467
 C        -0.5803344867       -5.1817961792      -16.8681008133
 C        -2.5030587792        1.0548916113      -21.4695697193
 C        -0.1884046385        0.4571508323      -22.1285847081
 C         2.5144457062        4.2065361850      -17.0482916840
 C         3.3251706038        4.7372945329      -19.4304058890
 C         4.0007300018       -2.0221269779      -17.4702710500
 C         6.1933228384       -1.7582628900      -18.7976756552
 H         5.2573506080       -4.7892317828      -19.8810839044
 H         6.0505250554       -3.5113187520      -20.7406051975
 H         4.5828957241       -4.3661810516      -21.4567682470
 H         5.8299569757        0.2490713062      -20.1745598527
 H         5.5981836957        0.7690360848      -18.4306819353
 H         3.7039746927        1.9297087725      -20.5643494054
 H         5.2735537969        2.6887546481      -20.1721612064
 H        -0.2337556931        3.7537136832      -17.7267220493
 H         0.3183423408        2.1585839304      -17.6705440802
 H        -0.9285100034        3.0481681913      -20.2045056234
 H        -2.0669190612        2.5554979500      -18.8051786179
 H        -3.4748872173       -1.7011072846      -20.6312005830
 H        -3.1657695954       -0.9839381296      -19.0665536147
 H        -2.7472183753       -3.8421743892      -20.0233027503
 H        -3.7761854552       -3.2015888893      -18.7083590139
 H        -1.0483913746       -4.2164354635      -14.4578031594
 H        -2.3506201804       -5.4224652113      -14.2848075111
 H        -3.8394597555       -3.9220120951      -13.2384706812
 H        -2.7755239243       -2.4390008032      -13.7564407696
 H        -3.8572457130       -5.0936076048      -10.1036180468
 H        -4.1618124528       -4.6648804569       -8.4805596648
 H        -1.3844713068       -5.1304454635       -9.5353642671
 H        -2.2648025670       -6.5302527273       -8.9755698106
 H         1.4196374771       -3.1468141930       -5.5428370642
 H        -0.4362863491       -2.9069941454       -5.8682723227
 H         0.1094397090       -1.0504911561       -7.3148819115
 H         1.5891204444       -1.6958971165       -7.6697861185
 H        -0.0658852788        1.2730266283       -3.7769290377
 H        -0.3462728093       -0.2970681344       -4.3945436297
 H        -2.3659570834        1.9919000222       -4.7987823855
 H        -2.1756610920        1.4348490438       -3.2837245985
 H        -5.0551957961        2.1114653173       -7.4503222676
 H        -5.9557586068        2.3738259866       -5.9058951979
 H        -6.8393808009        1.0987105631       -8.4937883048
 H        -7.5029377106        2.3553420286       -7.4918612856
 H        -9.1326147395       -2.8858912338       -5.9935417686
 H        -7.5657858023       -2.2361068621       -5.5976229705
 H        -6.8227215918       -3.7182108981       -7.6410329392
 H        -8.0887291237       -4.7558729549       -7.1222273823
 H        -8.7611668659       -3.8436045510       -3.5686901261
 H        -8.4370500820       -5.1861864849       -2.3466965116
 H       -10.6511095190       -5.0350875793       -1.9362829419
 H       -10.9675487210       -5.9017685194       -3.4249059225
 H       -13.6480420262       -1.0137892509       -1.2343684381
 H       -12.5650667995       -0.5444009028       -2.6148565752
 H       -11.4637448218       -0.9697178622        0.1598389489
 H       -12.3981959534        0.5158582656       -0.0940896239
 H        -8.2188252812        2.9057851045       -2.1716293269
 H        -8.0952543267        3.6602480578       -0.8160173346
 H        -9.8187205700        2.9992960811       -1.4462714204
 H        -9.0888575282        1.9348554110        2.0398700720
 H       -10.6593182736        1.1781162674        1.8741201714
 H       -10.3407634807        2.5681526015        0.8739843137
 H        -9.4013433334       -1.2247541299        1.1464284663
 H        -8.1245799021       -0.1817354216        1.3659702880
 H        -8.3526874194       -1.0636272709       -0.1655071389
 H       -13.6193847152       -3.0526381454       -4.8799416239
 H       -12.8074397418       -1.5185589336       -4.3908767426
 H       -14.3223814422       -2.2165690673       -3.6510915788
 H       -14.5018522854       -4.3822183001       -2.4325257709
 H       -12.9383455025       -5.1205913164       -1.8589577721
 H       -13.4101425237       -5.3938499658       -3.4886210275
 H        -7.0374331142       -7.0681019393       -6.3807891584
 H        -7.0191175752       -8.0979019816       -5.0190182504
 H        -5.5039805839       -7.1464916000       -5.4437071395
 H        -5.0951847022       -5.6887610197       -3.6931113835
 H        -6.3771272011       -6.2649011104       -2.6484750555
 H        -6.2315883925       -4.5524199852       -2.9282015838
 H       -10.6587527397       -1.4411585152       -6.8291207451
 H       -10.8268377861        0.2076487349       -6.3013376168
 H        -9.8285496060       -0.7686306594       -5.4146375174
 H        -8.5289661637        0.1830071370       -9.3256017900
 H        -9.7120185347        1.2928969787       -8.5732011204
 H       -10.2093102078       -0.2217857203       -9.2275881232
 H        -6.3282500971       -0.2516897909       -3.6749654272
 H        -4.7918731686       -0.9164306914       -2.8702924954
 H        -5.4788608338       -1.6975767236       -4.2973251203
 H        -4.5429577121        1.6016442557       -2.8507121807
 H        -5.9306198055        1.7672660040       -3.7803513271
 H        -4.4096287219        2.4965945030       -4.3623883060
 H         3.4115467278        2.0510050568       -5.5388016051
 H         2.5801591065        1.0612962886       -4.2081934512
 H         2.0103097926        2.5923863662       -4.7194719891
 H         0.9863668806        1.3684573889       -8.2179042333
 H         2.7042538669        1.4600398661       -8.0269564996
 H         1.5658030200        2.6565676160       -7.3583771059
 H         0.7091755187       -6.2813131058       -5.3481203312
 H        -1.0602198840       -6.3397470098       -5.2783126292
 H        -0.3458094376       -4.7701155273       -4.9734390173
 H         0.5103490967       -6.5214827122       -8.8713975881
 H         0.3033856292       -7.5111119067       -7.4815494815
 H         1.6385585721       -6.3668167588       -7.4007877469
 H        -2.0908991652       -0.7128453132      -11.8961990515
 H        -0.8735621593       -1.6318139636      -10.9687371136
 H        -2.0801764888       -0.5945347814      -10.1776125843
 H        -4.4116599774       -1.2558411174      -11.8561639037
 H        -4.9085051926       -1.8124904914      -10.3035468340
 H        -4.9069911811       -2.8522703265      -11.6039312827
 H        -3.8722400855       -5.3441610291      -17.7052985750
 H        -2.8421151255       -6.6542067762      -17.0249647516
 H        -2.7096010756       -6.1060890118      -18.6847206471
 H        -0.1025602982       -5.2945181145      -17.8381477195
 H        -0.6006805657       -6.1258188671      -16.2908652249
 H         0.0438925429       -4.4222710719      -16.3956740220
 H        -2.8392371060        0.5776891905      -22.4501760356
 H        -2.4246224001        2.1421623459      -21.5027674934
 H        -3.4310343216        1.1062491551      -20.7995305774
 H        -0.1930374805        1.4084387822      -22.6156931199
 H        -0.5301774502       -0.2672373450      -22.7650999466
 H         0.9015150047        0.2865252947      -21.7997230249
 H         1.5163334835        3.8562952826      -16.6243277803
 H         2.4981681687        5.3156652672      -17.1376445022
 H         3.3655888693        3.9128800464      -16.4757802052
 H         2.8484117015        5.7023539660      -19.1716276645
 H         2.9226307464        4.5608957224      -20.4733602978
 H         4.3885738387        4.7672081991      -19.3069077870
 H         4.1807159743       -1.1475228151      -16.9152230836
 H         4.5102671787       -2.8911350878      -16.9938884894
 H         2.9250820556       -2.2721932154      -17.4266360924
 H         6.6193889555       -1.8165953789      -19.8253884990
 H         6.3928372674       -2.7452650282      -18.3430636285
 H         6.5151748368       -0.9409280527      -18.2142686299
 Na        1.0983072348       -1.7921557746      -19.4615474255
 Na       -3.8682516328       -2.6247875915       -6.4933661069
