232

 C         4.9372731515       -3.8707304619      -20.4930443597
 C         4.0554949999       -2.9471594587      -19.7301824709
 O         2.9181134817       -2.9802731377      -19.9956117987
 C         4.4862317751       -1.8220525931      -18.6885856587
 C         4.0668580328       -0.3449614544      -19.2512855849
 O         2.9472593370       -0.2112949436      -19.7278000881
 C         5.0867046431        0.9174798028      -19.2574798312
 C         4.3520355310        2.2919930792      -19.4392298773
 C         3.5427667513        2.7229182729      -18.2195190316
 O         3.5903323722        2.2302003415      -17.1157709403
 C         2.4506154388        3.9375867153      -18.5705673810
 C         1.2648276703        3.1618318919      -19.1330412461
 O         1.5034672215        2.4890028839      -20.1415095830
 C        -0.1809279472        3.2070851643      -18.5972209943
 C        -1.3301228499        2.3848086770      -19.2813558943
 C        -0.7300363565        0.9984970305      -19.6853446310
 O         0.0592174358        0.5392474806      -18.9088937116
 C        -1.5281842140        0.3530299491      -20.9022293675
 C        -1.6232002049       -1.1092750234      -20.5644918946
 O        -0.8526210446       -1.9688202597      -21.0011812270
 C        -2.5211415696       -1.4741979846      -19.3584607218
 C        -2.5542665680       -3.0052482366      -19.0087456302
 C        -1.4056536933       -3.4470358756      -18.0807904439
 O        -0.3050504530       -2.9172253774      -18.0228798188
 C        -1.8946908590       -4.6731656954      -17.1705659738
 C        -2.8913663379       -4.0832105227      -16.2105994455
 O        -3.8821025682       -3.5484700770      -16.6238625872
 C        -2.4911637031       -4.3310209372      -14.6681663484
 C        -3.1291296410       -3.4200543175      -13.6209311740
 C        -2.6314347607       -3.5797540137      -12.1838240003
 O        -1.7911585461       -4.3875394504      -11.8384182853
 C        -3.0422868275       -2.4130393600      -11.0479316808
 C        -3.1202252667       -2.9922408818       -9.5890607995
 O        -2.9091844958       -2.3202516024       -8.5991921164
 C        -3.3033774235       -4.5312507994       -9.2383591871
 C        -1.9024414350       -5.0131710401       -8.9368713623
 C        -1.5849633708       -5.1671738429       -7.4015731903
 O        -2.4565175976       -4.8633802850       -6.5668225296
 C        -0.1002393226       -5.3637810698       -6.9153828204
 C         0.6030470893       -3.9121617734       -7.2781864007
 O         0.9683157431       -3.6625830371       -8.4566095848
 C         0.7640225677       -2.9094279833       -6.1420060350
 C         1.5132090081       -1.7485384633       -6.6188221146
 C         1.8729503608       -0.6511704185       -5.6739317971
 O         2.2472926164       -0.7782656507       -4.5419966599
 C         1.6866857787        0.8857270900       -6.2187187950
 C         0.1109696831        1.3391428721       -5.9747840682
 O        -0.4660073562        2.1580452468       -6.6039769364
 C        -0.5645833732        0.5733587222       -4.7160912407
 C        -1.9473874441        1.0593449026       -4.4254275007
 C        -2.9688427902       -0.0311369194       -4.6287857791
 O        -2.5818611363       -1.2012311785       -4.6939103519
 C        -4.5504767387        0.2591697013       -4.6345001734
 C        -4.8916605545        0.0904502094       -6.1801906873
 O        -4.7046897467       -0.9830300226       -6.8007819540
 C        -5.4420868090        1.2238770920       -7.0189413059
 C        -6.7490721154        0.9292964842       -7.7389126941
 C        -7.8122371913        0.4222104655       -6.8578461840
 O        -7.7743658630        0.7936590194       -5.7088251060
 C        -8.8857475973       -0.5124513718       -7.3086919846
 C        -7.9920010786       -1.9288346665       -7.3914081230
 O        -7.2928061016       -2.1068125442       -8.3679963518
 C        -7.9049143791       -2.8943305377       -6.1486462195
 C        -7.2094948514       -4.2113176682       -6.5540726821
 C        -6.3927480660       -4.7617808689       -5.4163741111
 O        -5.2591797747       -4.3957377588       -5.1017321545
 C        -7.0875110502       -5.9544123990       -4.6528765136
 C        -8.6309891211       -5.5448190016       -4.4212757684
 O        -9.4841590430       -5.8043987319       -5.2250360859
 C        -9.0118437324       -4.7217271653       -3.1330324187
 C       -10.5510693657       -4.7380207924       -2.9084504502
 C       -11.2461161730       -3.5886611430       -3.5625513870
 O       -10.6875711779       -2.9851168855       -4.3956816019
 C       -12.6351169692       -3.1511788042       -2.9538779276
 C       -12.2528312987       -2.5060852104       -1.6433572180
 O       -11.5457374657       -3.0357131354       -0.8105113594
 C       -12.6320811145       -1.0560037716       -1.4667164909
 C       -11.6980501491       -0.3614328631       -0.4081770058
 C       -10.3884034542        0.1743628985       -1.0438580787
 O       -10.3405988338        0.0789126973       -2.2590023983
 C        -9.2526878596        0.7320979999       -0.1759049791
 C        -8.0757049170        1.2844132748       -1.0589021357
 O        -6.9083424136        0.9402600344       -0.8880123359
 C        -8.4267538542        2.1714419488       -2.2248460747
 C        -9.8482145941        1.9115136500        0.6714009440
 C        -8.6630433417       -0.3118828825        0.7443352994
 C       -13.4272519939       -2.2373499147       -3.8387168305
 C       -13.4916964751       -4.4395508446       -2.6411680518
 C        -7.0053383799       -7.1571786118       -5.6697123109
 C        -6.3247144432       -6.1819045297       -3.4258701894
 C       -10.0155701406       -0.5984030687       -6.2421895157
 C        -9.4392307481       -0.2157203457       -8.7255508623
 C        -5.3045638362       -0.7866023407       -3.7596217073
 C        -4.9622088340        1.6735236838       -4.1227768799
 C         2.3870709774        1.9512648903       -5.2927232229
 C         2.1348041292        1.1694454823       -7.6350447008
 C        -0.1476865507       -5.5758120033       -5.3634523466
 C         0.7273934558       -6.4587651026       -7.7172796386
 C        -1.9362832873       -1.3266276943      -11.1223711225
 C        -4.4237646484       -1.8870845225      -11.4327084343
 C        -2.7563007839       -5.6317540430      -18.0975084585
 C        -0.6584971700       -5.4688386594      -16.6502223064
 C        -2.9951184722        0.9239947962      -21.1034203377
 C        -0.5769122990        0.4561695293      -22.0528958498
 C         2.0264509587        4.8805720072      -17.4308470637
 C         2.7826893045        4.9369379757      -19.7688670700
 C         3.6295367765       -2.1593748270      -17.4471793135
 C         6.0318160027       -1.9473240157      -18.3753035274
 H         5.5726282140       -4.4269499273      -19.8284760758
 H         5.4877394936       -3.3687979754      -21.3124492455
 H         4.3271844453       -4.7029653721      -20.9431625271
 H         5.6940822069        0.8090260728      -20.1129841762
 H         5.6711564772        0.8055183485      -18.3334554985
 H         3.6053021441        2.2528645782      -20.1680171478
 H         5.1365888925        3.0213166856      -19.7097233588
 H        -0.5561300510        4.2135626568      -18.6876131043
 H        -0.1993286777        3.0768116774      -17.5200728296
 H        -1.4256158455        2.8820054772      -20.2244894422
 H        -2.2667921811        2.3117580579      -18.6428048522
 H        -3.5567506378       -1.1294123443      -19.3489025167
 H        -2.0414674192       -0.8554709506      -18.5219941001
 H        -2.4624811645       -3.5354681513      -19.9391994886
 H        -3.4875870664       -3.2372876641      -18.4051559737
 H        -1.4217483259       -4.1326910040      -14.6074538912
 H        -2.8324559617       -5.3936157256      -14.5820617287
 H        -4.1971145872       -3.4689718240      -13.7581495673
 H        -2.9948308988       -2.2798328179      -13.8775896035
 H        -3.7294397898       -5.1822431247       -9.9548124242
 H        -3.9380405121       -4.4810302036       -8.3657990621
 H        -1.1831433555       -4.2598939858       -9.1844987834
 H        -1.7604024894       -5.9038661466       -9.5426559061
 H         1.2765115520       -3.5032965047       -5.2925144652
 H        -0.2440086911       -2.6329158997       -5.7520384713
 H         0.9137560070       -1.3186113901       -7.4773413168
 H         2.4304521222       -2.0731133891       -7.1358941966
 H         0.1189843621        0.7759052780       -3.8485708364
 H        -0.6284321624       -0.5108094922       -4.8923092065
 H        -2.1444417737        2.0850406241       -4.8231776677
 H        -2.0362209139        1.3165364268       -3.2601950566
 H        -4.7185992026        1.3629112438       -7.7816884109
 H        -5.5608850273        2.1925902715       -6.5196298858
 H        -6.5174988154        0.2484602824       -8.6021490838
 H        -7.0882829371        1.7842509300       -8.2979669298
 H        -8.9408360178       -3.1702040929       -5.7098100071
 H        -7.3041147084       -2.4010655817       -5.3466282347
 H        -6.4723646171       -3.9674057869       -7.3714017332
 H        -8.0338589807       -4.8736931388       -6.8536890338
 H        -8.7487714722       -3.6763757928       -3.4247350915
 H        -8.5188082389       -5.1545682206       -2.2827933428
 H       -10.8100624947       -4.6983387655       -1.8450649410
 H       -10.8070959687       -5.6691052830       -3.3571930932
 H       -13.6975026733       -0.9780604703       -1.2012588454
 H       -12.5901187523       -0.5385887877       -2.4202985256
 H       -11.4112402275       -1.1173448152        0.3007087606
 H       -12.2059517990        0.4392946935        0.1789305789
 H        -9.3430439197        1.8402477141       -2.6268958685
 H        -7.7757719198        1.8277982231       -3.0069206793
 H        -8.6970123552        3.2330676939       -2.0895679823
 H        -9.1369381425        2.3529171793        1.3078567624
 H       -10.5621782075        1.4465707808        1.2481014586
 H       -10.3459561364        2.5699458542        0.0958712011
 H        -9.1658956673       -0.6189565516        1.6336442857
 H        -7.6905422265        0.0869707757        1.0868566341
 H        -8.5649187013       -1.2642844563        0.2743741504
 H       -13.7534120267       -2.7238788548       -4.6923649405
 H       -12.7856471644       -1.4127811025       -4.2347335580
 H       -14.2247694622       -1.8895683971       -3.1585683393
 H       -14.4524921085       -4.2698823604       -2.2216254126
 H       -12.8569897455       -5.0830891595       -2.1636109734
 H       -13.6494919475       -5.0502842517       -3.4745187887
 H        -7.7878944700       -7.0452550479       -6.3392186636
 H        -7.1237138567       -8.2034147278       -5.2903561248
 H        -6.1071436667       -7.0437064425       -6.2067207005
 H        -5.2932420327       -6.4169108661       -3.6787840188
 H        -6.7577377190       -7.0225804611       -2.8473330015
 H        -6.2890333822       -5.3191276505       -2.7857020802
 H       -10.7392022291       -1.3606474611       -6.5748030455
 H       -10.4823165701        0.3572708787       -6.1879378608
 H        -9.5906395283       -0.7186836151       -5.1916999976
 H        -8.6878082896       -0.3868696677       -9.5537275668
 H        -9.6771017940        0.8428615387       -8.7914305620
 H       -10.2027782979       -0.8961031382       -9.0904765927
 H        -6.4233530877       -0.6284358701       -4.0523794283
 H        -4.9934862431       -0.3552950320       -2.8360525120
 H        -4.9590873963       -1.8083546460       -3.9822795577
 H        -4.7116073492        1.7463267114       -3.0356559400
 H        -6.0135686153        1.8862559912       -4.1506594025
 H        -4.5522393689        2.5585711647       -4.7125775277
 H         3.4638794764        1.6373188396       -5.0646366515
 H         1.8720005882        2.0513400661       -4.2866209141
 H         2.5466824680        3.0179098807       -5.6919079564
 H         1.7201352782        0.5471059559       -8.3767785518
 H         3.2467052898        1.0227613367       -7.7617687704
 H         2.0227246929        2.2580009938       -7.8483404804
 H         0.8187062925       -5.3771154938       -5.0097967134
 H        -0.5050597288       -6.6180559545       -5.2360020002
 H        -0.9787988999       -4.9930120703       -4.8418542584
 H         1.1302671472       -5.9889242764       -8.6050943396
 H         0.1537955856       -7.2801219086       -7.9457524753
 H         1.5794776484       -6.7855686365       -7.2203327181
 H        -1.7946860690       -1.0196527701      -12.2053148885
 H        -0.9919833904       -1.7434004362      -10.8385939961
 H        -2.2594229333       -0.4877892631      -10.4443666310
 H        -4.4757543802       -1.8826179592      -12.5033081832
 H        -4.6770502709       -0.8854275364      -11.0200440659
 H        -5.2841064457       -2.4877617947      -11.1514994362
 H        -3.7026801431       -5.2658978850      -18.2372997991
 H        -3.0351325009       -6.5988052836      -17.6196941598
 H        -2.2906991871       -5.7822974025      -19.0226124344
 H        -0.1263745714       -5.7570862491      -17.5459622454
 H        -0.8611060395       -6.3915273840      -16.1146129194
 H        -0.0128373401       -4.8172504656      -16.0843139239
 H        -3.6026509011        0.2473943293      -21.7660025783
 H        -3.2186164345        1.7861758989      -21.7995600715
 H        -3.5679324302        1.1081724078      -20.2030087617
 H        -0.0341290223        1.3674740239      -22.1725442929
 H        -1.1795155900        0.2419642401      -22.8734550433
 H         0.1661278590       -0.4398778886      -22.0050139649
 H         1.9727620398        4.3359481084      -16.4463271880
 H         1.0496531440        5.3450667786      -17.7203606728
 H         2.8031218682        5.7587825344      -17.3223659205
 H         1.9956482315        5.6823753157      -19.7818896067
 H         2.8233108230        4.2494689579      -20.6445466381
 H         3.6790565447        5.4094452683      -19.6531878514
 H         3.8830209197       -1.5595147596      -16.6260359023
 H         3.6327563681       -3.2579599841      -17.1626835886
 H         2.5345304454       -1.8761726374      -17.6185072679
 H         6.5899533996       -2.0286972540      -19.2914318332
 H         6.1876292933       -2.7649996039      -17.6979384277
 H         6.3749299987       -1.1246037021      -17.7853658853
 Na        1.0203336374       -1.9880865648      -19.5628273210
 Na       -3.6205686802       -2.8345492581       -6.1560196948
