232

 C         5.1730479099       -3.5868422005      -20.3798071518
 C         4.0137936342       -2.8182755010      -19.7161839081
 O         2.8132924844       -3.0349789092      -20.0921662468
 C         4.3524864681       -1.8118207656      -18.6496029063
 C         3.8780839035       -0.3866242158      -19.1797087638
 O         2.7953533810       -0.2350978902      -19.6839630913
 C         4.7549599799        0.8542142475      -18.6598682121
 C         4.3393409609        2.1880128495      -19.2800484293
 C         3.3786747820        2.8765688266      -18.2933745468
 O         3.3699379510        2.5433486054      -17.1304864969
 C         2.3817882930        4.0167443693      -18.7910344846
 C         1.0408012416        3.2858910559      -19.2989789157
 O         1.0869132033        2.4486115629      -20.1736672832
 C        -0.2734932798        3.4082484614      -18.5597358305
 C        -1.2045547096        2.5468277724      -19.4427211097
 C        -0.8039876458        1.1474890245      -19.6383762568
 O        -0.2117936349        0.3706156452      -18.8585018662
 C        -1.5799567094        0.4158037752      -20.7900841666
 C        -1.5782202374       -1.1162101529      -20.3390936663
 O        -1.0432554270       -1.9431243296      -21.0546621074
 C        -2.3966442214       -1.5688398335      -19.1323887453
 C        -2.4976115501       -3.1253773033      -19.0301322694
 C        -1.4353017477       -3.6385252293      -18.0685207511
 O        -0.3150030606       -3.1734670952      -17.9935371541
 C        -1.9027883023       -4.8259785011      -17.1888101799
 C        -2.8581733155       -4.0651636030      -16.0739561678
 O        -3.8516412981       -3.4748250189      -16.4915847585
 C        -2.4455389749       -4.1620504498      -14.6513428013
 C        -3.3105236954       -3.3255352229      -13.7120933885
 C        -2.8233863237       -3.5133338572      -12.1818058461
 O        -2.0404831108       -4.4385543319      -12.0082032983
 C        -3.1531324157       -2.5132475264      -11.0253698675
 C        -3.0685575066       -3.0218907845       -9.5797189030
 O        -3.1061925526       -2.1276077815       -8.7237561275
 C        -3.1341071095       -4.4580765616       -9.3266228152
 C        -1.6885361585       -5.0710705838       -8.9598700491
 C        -1.4693944956       -4.9470226420       -7.4311964802
 O        -2.3856380213       -4.5784898693       -6.7381616065
 C        -0.0150521816       -5.2823228479       -6.8426991179
 C         0.6419632203       -3.8215614426       -7.2235855768
 O         0.7733570607       -3.5221360702       -8.3736019409
 C         1.0480554507       -2.8928729804       -6.0524100704
 C         1.7993622187       -1.6819023817       -6.7099991326
 C         1.9856397806       -0.5578785576       -5.6568157694
 O         2.1582222360       -0.8397560969       -4.4710914487
 C         1.8067729121        0.9054778000       -6.1396306546
 C         0.2119566646        1.3211552392       -5.9186758764
 O        -0.3692529359        2.0212143270       -6.7184818129
 C        -0.5239852905        0.5960897400       -4.7836784371
 C        -1.9872479849        1.0339480466       -4.4657473635
 C        -2.9309979844       -0.1295174980       -4.7040509627
 O        -2.4815357761       -1.2678726895       -4.8220421467
 C        -4.4506278237        0.2364075082       -4.7194003733
 C        -4.8082970235        0.0391320280       -6.2331129532
 O        -4.8585157754       -1.0633404994       -6.6907109816
 C        -5.2641677952        1.1927161910       -7.0808853153
 C        -6.4981627021        0.6883904583       -7.8711575419
 C        -7.7038182351        0.4512515885       -7.0082951998
 O        -7.8060845560        1.1365522538       -5.9911889208
 C        -8.7335552875       -0.6526299381       -7.2498197406
 C        -7.9439333658       -2.0124740923       -7.4242468418
 O        -7.4523234208       -2.2963843080       -8.4967576524
 C        -7.9107445196       -2.9372183803       -6.2361160475
 C        -6.9664920462       -4.1643935799       -6.5590971637
 C        -6.3934115258       -4.7651550314       -5.3279632654
 O        -5.3694989075       -4.2364800060       -4.8963214256
 C        -7.1495264391       -5.9329145242       -4.7025262026
 C        -8.6307863304       -5.4905062180       -4.3637864495
 O        -9.3980634639       -5.5263317525       -5.3072192989
 C        -8.9786603098       -4.8545007305       -3.0352961033
 C       -10.5408296752       -4.6958728324       -2.9399072163
 C       -11.2477142111       -3.5177752876       -3.5496111997
 O       -10.6295690992       -2.7436900577       -4.3046544853
 C       -12.5511752803       -3.1808827882       -2.8373523747
 C       -12.1393252936       -2.4476425719       -1.4769050134
 O       -11.4990529998       -3.0622840898       -0.6773444912
 C       -12.5843590771       -1.0643438688       -1.1624799520
 C       -11.6288093549       -0.2033125460       -0.4179562742
 C       -10.3242218200        0.0333336315       -1.1270356002
 O       -10.1286657051       -0.3313358250       -2.2614690413
 C        -9.1621380646        0.7003914358       -0.3263625438
 C        -8.0098988825        1.1697032872       -1.2884420397
 O        -6.8829945595        0.7738384211       -1.1727293887
 C        -8.4439443697        1.9339176596       -2.5753809503
 C        -9.7075672732        1.9631533086        0.3129047007
 C        -8.7635205205       -0.2422968971        0.7843390836
 C       -13.3238097535       -2.2296083044       -3.8189315692
 C       -13.3774050425       -4.3796493653       -2.6238929912
 C        -7.3646504742       -7.1242095686       -5.6842997365
 C        -6.4846044412       -6.5260219929       -3.3807321875
 C        -9.7665418856       -0.7522485181       -6.1489031176
 C        -9.4168745108       -0.4527864718       -8.6287658902
 C        -5.2984840499       -0.9193105531       -3.8786465154
 C        -4.7944011991        1.6224966851       -4.1615942740
 C         2.6637396454        1.7865182770       -5.2004202435
 C         2.1077427383        1.1547237371       -7.6979543344
 C        -0.1807549937       -5.6865703104       -5.2808508143
 C         0.7515398638       -6.3582028053       -7.6073349776
 C        -2.0160740352       -1.4295860995      -11.2301978612
 C        -4.5271659917       -1.8238878109      -11.2652696245
 C        -2.6251541615       -5.9099125452      -18.1529217787
 C        -0.6416683741       -5.4766082360      -16.6304066410
 C        -2.9261827410        0.9506814392      -21.0216933488
 C        -0.7853230038        0.5687917057      -22.1400399806
 C         2.1397524893        4.7373713174      -17.3922783330
 C         2.9669859694        4.9193527408      -19.9773236669
 C         3.6384542056       -1.9586923106      -17.2788631819
 C         5.8512736785       -1.7726383272      -18.3266558878
 H         6.1068601838       -3.5405827060      -19.8010222910
 H         5.2528694836       -3.1745878616      -21.3902597752
 H         5.0877646818       -4.6377360559      -20.5062798763
 H         5.8581621807        0.6321063813      -18.7887442781
 H         4.5179224680        0.8495436689      -17.5916287865
 H         3.7769791660        2.1180298453      -20.2937516614
 H         5.2017258091        2.8338555989      -19.3542646360
 H        -0.7039240814        4.4221457785      -18.3847374884
 H        -0.2538932011        2.9762517708      -17.5348420559
 H        -1.3563530914        3.0099974264      -20.4535422860
 H        -2.0974094411        2.3863491510      -18.8688082083
 H        -3.4248451823       -1.1496985530      -19.2614559217
 H        -2.0596346220       -1.0662370294      -18.2432016577
 H        -2.3099804080       -3.5179002632      -20.0823658597
 H        -3.4175470757       -3.3467781681      -18.5569358951
 H        -1.3789495193       -3.9181398268      -14.4715365469
 H        -2.6984726441       -5.1951761576      -14.5379290048
 H        -4.3961365197       -3.5776173750      -13.8116976316
 H        -3.4512007500       -2.3485536172      -13.9216449672
 H        -3.5363259874       -4.9024942047      -10.2786134036
 H        -3.8764721761       -4.5554622564       -8.5113945336
 H        -0.7971048709       -4.5440594557       -9.3722777843
 H        -1.6912518585       -6.1251981886       -9.2234570529
 H         1.4728900056       -3.4425105050       -5.2545593775
 H         0.1146913269       -2.5441277817       -5.5876711480
 H         1.1192421467       -1.3789426217       -7.4725676783
 H         2.7292750650       -1.9763582637       -7.1793622846
 H         0.0697489250        0.6650726632       -3.8889954775
 H        -0.6542367788       -0.4613906812       -5.0783977484
 H        -2.3014192747        1.9157142188       -5.0231007204
 H        -2.0807437883        1.3573282741       -3.5034955957
 H        -4.4126331735        1.4664447025       -7.8064485319
 H        -5.5095473437        2.1273260199       -6.5882991919
 H        -6.1966269468       -0.1105274666       -8.4799271775
 H        -6.8411809159        1.3812502910       -8.6607959482
 H        -8.8659584056       -3.2711019444       -5.9509768118
 H        -7.4661183830       -2.4200712284       -5.3867739431
 H        -6.1008532620       -3.7968949896       -7.0229155309
 H        -7.5437723365       -4.8501089695       -7.1434730681
 H        -8.4910062751       -3.8928788210       -2.8960989240
 H        -8.7818491347       -5.6612623156       -2.2641815757
 H       -10.7765556964       -4.7326295062       -1.8850451148
 H       -10.9081043823       -5.6107537232       -3.4510084921
 H       -13.5324094229       -1.0844821354       -0.5925309169
 H       -12.9950572629       -0.5191860900       -2.0549542740
 H       -11.4206012090       -0.5206368104        0.6252473348
 H       -12.0818213576        0.7422346877       -0.2601327440
 H        -9.4010881928        2.4678074322       -2.7384282110
 H        -8.2137737859        1.2466645511       -3.4142551897
 H        -7.7973369696        2.7971765290       -2.5420294482
 H        -8.8135856586        2.5759677272        0.6201904808
 H       -10.4503267721        1.8012059511        1.1402859314
 H       -10.2320097802        2.5529834822       -0.5100305155
 H        -9.7316260589       -0.6358547736        1.1758068846
 H        -8.3025967089        0.2496968258        1.6037370305
 H        -8.1562362792       -1.1657245453        0.6442054837
 H       -13.5616328159       -2.7905902797       -4.7488696532
 H       -12.6574218021       -1.4674846782       -4.1448641351
 H       -14.1449323174       -1.8164108985       -3.3460173225
 H       -14.0911033309       -3.9745187399       -1.8750304131
 H       -12.8467467476       -5.3613461667       -2.3082276551
 H       -14.1048279097       -4.7230844396       -3.4330169886
 H        -8.0422306827       -6.9116136205       -6.6178963483
 H        -7.7985032861       -7.8891642670       -5.0791257648
 H        -6.4006169287       -7.5053206054       -6.1146058169
 H        -5.5282227399       -6.9674628282       -3.6072140077
 H        -7.0828215160       -7.2877085858       -2.9114162654
 H        -6.2129457941       -5.7307426269       -2.6761424858
 H       -10.3844475469       -1.5851808690       -6.3667703149
 H       -10.4480080829        0.1211429213       -6.1926297141
 H        -9.2839630157       -0.9102804701       -5.2458304291
 H        -9.0426290750       -0.9900957903       -9.4690686711
 H        -9.4867845590        0.5759021289       -8.9476692663
 H       -10.4246006530       -0.8783589609       -8.5317616611
 H        -6.2097206388       -0.5198430995       -3.7968533801
 H        -4.8212349126       -1.0730552906       -2.9170536906
 H        -5.3509094196       -1.6849488967       -4.5982396367
 H        -4.7198395077        1.6421291174       -3.1149577239
 H        -5.8505463325        1.8309721069       -4.3899107604
 H        -4.3414947886        2.4871366736       -4.5770112328
 H         3.6965740988        1.4702209756       -5.0216391986
 H         2.2217990610        1.9566870439       -4.2374684221
 H         2.7363552529        2.7037270250       -5.6304101351
 H         1.6740039344        0.3107869767       -8.3203866713
 H         3.1170895052        1.2229042261       -7.9599211435
 H         1.7319042493        2.0721853477       -8.0054959996
 H         0.7371783103       -6.2567914470       -4.9568935604
 H        -1.0697581112       -6.2895392654       -5.3079808462
 H        -0.3194631956       -4.8365553686       -4.6336022877
 H         0.6867139393       -6.3122132436       -8.7047014947
 H         0.4477593710       -7.3231814843       -7.1119234203
 H         1.8870807490       -6.2629310138       -7.5313266672
 H        -2.0393201043       -0.9924014536      -12.1937374067
 H        -1.0261605723       -1.8648059255      -11.1164662559
 H        -2.1537410693       -0.7964695971      -10.4321996254
 H        -4.6295472356       -1.0441848253      -12.0199037793
 H        -4.7358983628       -1.3828273856      -10.3500383966
 H        -5.3202751983       -2.5226103923      -11.4140177005
 H        -3.7011162556       -5.6491561315      -18.3823263096
 H        -2.7715421826       -6.8708435166      -17.7934257720
 H        -2.0434810035       -5.9342302075      -19.0929158688
 H        -0.0105836676       -5.8350253624      -17.4661358437
 H        -0.7223837013       -6.3489055387      -15.9704371569
 H        -0.1736569860       -4.6352748175      -16.0839728026
 H        -3.4357948237        0.4227099333      -21.8028834087
 H        -3.0841354959        1.8623708755      -21.4534475413
 H        -3.5872990289        0.8254147793      -20.1118919008
 H        -0.9551535259        1.6092206237      -22.4745504871
 H        -1.1805508408       -0.1204388477      -22.8939107013
 H         0.2626344970        0.3436393935      -21.9961519167
 H         1.5861653357        3.9994337498      -16.8223504249
 H         1.6060622027        5.6750901791      -17.4788849785
 H         2.9789997084        4.8667816580      -16.8646435828
 H         2.2447423530        5.7527169864      -20.0119539238
 H         3.1192643083        4.2656469997      -20.8114386421
 H         3.9818689200        5.4236370160      -19.7362178727
 H         4.0141708229       -1.2151470780      -16.4951791057
 H         3.7782147275       -2.9407736194      -16.8724548843
 H         2.6049998748       -1.7789303333      -17.3227308488
 H         6.4495727583       -1.4023393381      -19.2053402731
 H         6.2173893118       -2.7533422263      -17.9421223752
 H         6.0587158840       -1.1267224487      -17.4539281391
 Na        0.8777888858       -1.7385228972      -19.5696644699
 Na       -3.6361491057       -2.9520058378       -6.0132469085
