232

 C         5.1251117738       -3.5197243045      -20.4314412566
 C         4.0504766332       -2.8231991997      -19.6741728701
 O         2.8914214758       -3.0338201123      -20.0216495688
 C         4.3510254426       -1.7407819326      -18.5701828358
 C         3.7586628172       -0.3876009981      -18.9958152654
 O         2.7440997824       -0.1544379350      -19.6661224817
 C         4.6361259994        0.8295581082      -18.5804082688
 C         4.1472461037        2.0741764112      -19.2341061814
 C         3.3171533321        2.8366607454      -18.2707300277
 O         3.2689018521        2.6265523910      -17.0770086295
 C         2.3973070653        4.0067892769      -18.8208382246
 C         1.1356556689        3.2887858439      -19.3332016800
 O         1.2418886158        2.5785659144      -20.3313123143
 C        -0.1873878319        3.3484906063      -18.5269705992
 C        -1.4650452258        2.6052283162      -19.2622911577
 C        -0.9758117033        1.1302995230      -19.5457921740
 O        -0.2151700760        0.6244814115      -18.7284302126
 C        -1.6405373188        0.4252811234      -20.8392921460
 C        -1.6773777117       -1.1169018515      -20.5665589870
 O        -0.9261261191       -1.8599747873      -21.1855179549
 C        -2.4748094229       -1.6329423178      -19.2291866044
 C        -2.6310234469       -3.1140216747      -19.0234535793
 C        -1.4756539843       -3.7152399555      -18.0886523767
 O        -0.3703240753       -3.2235772674      -18.1150667764
 C        -1.8181221692       -4.8548409840      -17.1099711172
 C        -2.8560820741       -4.2516163556      -16.0348994979
 O        -3.7510087824       -3.5412199077      -16.3544418804
 C        -2.3978835198       -4.1839887581      -14.5622747659
 C        -3.3843043752       -3.3742391466      -13.7247624303
 C        -2.8939837544       -3.4680341127      -12.2901273943
 O        -2.2314671280       -4.4467764566      -11.9794293333
 C        -3.1637631025       -2.3670833096      -11.1579889085
 C        -3.0668928727       -3.0255909043       -9.6942713345
 O        -3.2175898719       -2.2785360263       -8.7393669513
 C        -3.0155269264       -4.5793370314       -9.3638908072
 C        -1.6673059739       -5.2209266306       -8.9359324762
 C        -1.4601838549       -4.9785161019       -7.4142585048
 O        -2.3110373765       -4.4649657539       -6.6896373976
 C        -0.1004348818       -5.2461342604       -6.8434314974
 C         0.7001911091       -3.8375414470       -7.1193436252
 O         0.7684984293       -3.4326087270       -8.3115677994
 C         1.2308419546       -2.9145550620       -6.0612392717
 C         1.8927032527       -1.6995997727       -6.6856218406
 C         1.9765818481       -0.6065700749       -5.6635118206
 O         2.1446875464       -0.8873284602       -4.4992237596
 C         1.7435778869        0.9543209571       -6.1289862858
 C         0.2262921851        1.2862394809       -5.9413531725
 O        -0.4306830556        1.9619704828       -6.6706152202
 C        -0.4214803129        0.5769021833       -4.6726766401
 C        -1.8981546719        1.0055562613       -4.6445136374
 C        -2.8662264091       -0.1532335711       -4.7536712315
 O        -2.4995542059       -1.3277641339       -4.8810511710
 C        -4.4287989006        0.2177555419       -4.7805227279
 C        -4.8954888591        0.0495829794       -6.2282723581
 O        -4.9594901816       -1.1081671609       -6.6780878498
 C        -5.2504635149        1.1759300509       -7.2198294357
 C        -6.4252379641        0.6631932258       -8.0326837889
 C        -7.5980271040        0.5103290007       -7.0544786313
 O        -7.8201248537        1.2769285986       -6.1441418868
 C        -8.7874069093       -0.7210825251       -7.2729316824
 C        -7.9555929319       -2.0837197214       -7.4704276237
 O        -7.4882915515       -2.3092964425       -8.5839810309
 C        -7.7751950567       -3.0258730528       -6.3197694318
 C        -6.8241817094       -4.1705694637       -6.6720712535
 C        -6.2928169106       -4.8433309784       -5.3093353279
 O        -5.3928416112       -4.3619782769       -4.6295458448
 C        -7.1803923748       -6.0385596099       -4.6954027244
 C        -8.6480361190       -5.4073854181       -4.4327319236
 O        -9.4178480985       -5.3413595965       -5.3545330129
 C        -8.9783804985       -4.9601370003       -3.0242315368
 C       -10.5332254989       -4.7805299828       -2.7134863585
 C       -11.0927422513       -3.4548158182       -3.4254285723
 O       -10.6011332406       -2.7835385174       -4.2552393117
 C       -12.5501605146       -3.1343521550       -2.8035486117
 C       -12.1506545115       -2.4177805464       -1.4362550236
 O       -11.5220374576       -3.1028453615       -0.6642890414
 C       -12.7431710393       -1.0655307336       -1.1209849088
 C       -11.7087105479       -0.1328299840       -0.4619818074
 C       -10.3098777777       -0.0663653326       -1.1798874343
 O       -10.1546026918       -0.6396233194       -2.2495649011
 C        -9.1486885608        0.7574973206       -0.4145957011
 C        -7.9732304135        0.9729563542       -1.4289478831
 O        -6.8284977351        0.6220946334       -1.1968132233
 C        -8.4209126190        1.8436961612       -2.5922955759
 C        -9.6273291255        2.2478693402        0.1659643628
 C        -8.5148749492       -0.1305069303        0.6813885455
 C       -13.2711978789       -2.1399700655       -3.8976630294
 C       -13.4882267993       -4.3314715913       -2.4411581423
 C        -7.2522263603       -7.1916264630       -5.7210109971
 C        -6.4721579064       -6.5355178104       -3.4111987817
 C        -9.7393558869       -0.6923007783       -6.1201199838
 C        -9.4686564525       -0.3184032932       -8.6759394188
 C        -5.1637384330       -0.8716724394       -3.9203074444
 C        -4.7088089466        1.5241920844       -4.1058849161
 C         2.7663426088        1.8176493754       -5.2999486325
 C         2.2224800653        1.2570005714       -7.5190737454
 C        -0.1066811016       -5.5895408804       -5.3473447589
 C         0.6430599899       -6.3505320801       -7.5829637368
 C        -1.9720283059       -1.3095970276      -11.2877732085
 C        -4.5912508648       -1.8310528999      -11.2526535732
 C        -2.5864185839       -5.9085417659      -17.9183315155
 C        -0.6591388585       -5.5981432522      -16.4284269314
 C        -3.1179316960        0.9171516519      -21.0720727059
 C        -0.8311540050        0.5969806968      -22.1622193582
 C         2.0717472113        4.8809149094      -17.5967823080
 C         3.0256657472        4.8695512558      -19.9132067992
 C         3.4725725983       -1.9794206621      -17.2738890669
 C         5.8647800410       -1.6498657972      -18.2458479562
 H         6.0704145233       -3.5068384146      -19.9900061414
 H         5.0504701497       -3.0906941216      -21.4201098929
 H         4.9472857056       -4.5704023071      -20.5984464926
 H         5.6425483140        0.5769968166      -18.8966985376
 H         4.6023411238        0.9391938503      -17.4729673486
 H         3.4400954247        1.8875312892      -20.0981155365
 H         4.9476026611        2.7623483949      -19.4956039259
 H        -0.4374613931        4.4144252676      -18.4188020121
 H        -0.0446358633        3.0282719857      -17.4712844844
 H        -1.5296331275        3.1161324954      -20.1923506922
 H        -2.3681289618        2.6614469772      -18.6650715574
 H        -3.4059347354       -1.1165418807      -19.0421984946
 H        -1.8520290606       -1.2216743188      -18.3987927310
 H        -2.4762034300       -3.6285670879      -20.0003377557
 H        -3.5726534235       -3.2448319315      -18.5315891104
 H        -1.4966292793       -3.5365320127      -14.4844332589
 H        -2.2399673453       -5.1507132756      -14.1226300128
 H        -4.4844206112       -3.4531711835      -13.8196560633
 H        -3.4690255487       -2.2716756768      -13.8681720535
 H        -3.3561124804       -5.0224274714      -10.3073889709
 H        -3.8108173090       -4.6760157411       -8.5746542435
 H        -0.7678801817       -4.7000480137       -9.3820339436
 H        -1.6539797199       -6.3121930419       -9.1526648406
 H         1.9662927926       -3.4432152946       -5.4060925062
 H         0.4713023557       -2.7700859880       -5.3627765344
 H         1.3521684382       -1.3489496201       -7.6037125337
 H         2.8821514024       -2.0436796281       -6.9335706449
 H         0.0137135072        1.0333956903       -3.7800389447
 H        -0.4104052393       -0.5486830292       -4.6375133512
 H        -2.0878329956        1.7626880636       -5.3786610857
 H        -2.0854610403        1.5171040653       -3.7084687459
 H        -4.3661295281        1.4141459604       -7.8554112225
 H        -5.5448473554        2.1169606250       -6.8145836287
 H        -6.1353770466       -0.2592121867       -8.5234538617
 H        -6.7416977841        1.2411178940       -8.9439142867
 H        -8.7125114329       -3.4179958386       -6.1058656704
 H        -7.4008906645       -2.5476377189       -5.4354603163
 H        -5.9998909762       -3.8119080722       -7.2810129875
 H        -7.4716537149       -4.8865916545       -7.1745981619
 H        -8.6988255184       -3.9279926128       -2.9236738443
 H        -8.5513780633       -5.6447512164       -2.2828518229
 H       -10.5317996093       -4.7016316491       -1.6094577161
 H       -11.1637221418       -5.6349616859       -3.0790432846
 H       -13.6485299334       -1.1124242151       -0.5178020915
 H       -13.2276145216       -0.6326416738       -2.0041279881
 H       -11.4340812411       -0.5202709964        0.5579440917
 H       -12.1000292761        0.8699609704       -0.1962283501
 H        -9.1446548864        2.5321559262       -2.2511738265
 H        -8.9036293047        1.1723219995       -3.3307606601
 H        -7.6891491502        2.5840680527       -3.0105460707
 H        -8.6172955913        2.7553979654        0.4657345112
 H       -10.3702736368        2.1815511525        1.0290817867
 H       -10.0678594235        2.9108577657       -0.6276195758
 H        -9.2451447133       -0.7942967214        1.2566428423
 H        -7.9156265083        0.4409318859        1.3973239535
 H        -7.7451270056       -0.8568019848        0.3446992484
 H       -13.3922816727       -2.6242089620       -4.8603085572
 H       -12.7543371605       -1.1376936138       -4.0758890798
 H       -14.2279343427       -1.9377100891       -3.4396089377
 H       -14.4434829136       -3.9864729071       -1.9608705850
 H       -12.9285343085       -5.1163992149       -1.8269242847
 H       -13.8387465865       -4.9127304084       -3.3374406391
 H        -7.5749926428       -6.7278639770       -6.6785658026
 H        -8.0095379968       -7.9602380877       -5.3937726135
 H        -6.3143608820       -7.6973445399       -5.9799648278
 H        -5.5902071411       -7.0327427792       -3.7146604861
 H        -7.0487850701       -7.3179257465       -2.8375840302
 H        -6.0807374125       -5.7459039956       -2.7747456164
 H       -10.4769733496       -1.4932572834       -6.2291040305
 H       -10.3294030460        0.2170420375       -6.1830431225
 H        -9.1501983055       -0.9423164841       -5.2004479951
 H        -8.8676322022       -0.7063390675       -9.5280976648
 H        -9.6361156524        0.6841611942       -8.8657753744
 H       -10.4114721125       -0.8672449083       -8.8029527617
 H        -6.1685783170       -0.4304349935       -3.7173366497
 H        -4.6410089943       -0.9126574649       -3.0017326129
 H        -5.2088982832       -1.7032338051       -4.5992056486
 H        -4.4704205082        1.5469857392       -3.0886179807
 H        -5.7078576331        1.8086626924       -4.2346556088
 H        -4.2019919369        2.3877086591       -4.6081042578
 H         3.7955289063        1.5819200662       -5.4623084025
 H         2.5967372079        1.7323710169       -4.2970635849
 H         2.5932162488        2.8300574453       -5.5691673993
 H         1.7241875026        0.6715249684       -8.3014565076
 H         3.3045076789        1.0971856850       -7.6229044851
 H         2.1487201034        2.2947833161       -7.7395579234
 H         0.7818990377       -6.1211178268       -5.1921202054
 H        -0.9750997708       -6.2111561484       -5.1514496042
 H        -0.0229248385       -4.6674521372       -4.7410458546
 H         0.5819056722       -6.3020474036       -8.7189210476
 H         0.4289929527       -7.2872347685       -7.1052964902
 H         1.7694889334       -6.1965522280       -7.5318180177
 H        -1.9789772743       -0.7312677318      -12.2498243262
 H        -1.0700270977       -1.8453987085      -11.2885831346
 H        -1.9289513638       -0.7640512702      -10.3640951337
 H        -4.8447329015       -0.9276849964      -11.8736061671
 H        -4.8851637659       -1.5320051330      -10.2419567409
 H        -5.2750991597       -2.6474961167      -11.5193976513
 H        -3.5726746472       -5.5422107732      -18.2357633867
 H        -2.8962849941       -6.8793773653      -17.4341696905
 H        -1.9798118348       -6.1383921184      -18.8226505144
 H        -0.1248145740       -6.2471758815      -17.1134941664
 H        -1.1053714799       -6.3322126557      -15.7198825250
 H        -0.0426306105       -4.9246795217      -15.8262005368
 H        -3.6444140877        0.4821178446      -21.8809851831
 H        -3.2431261958        1.9014643789      -21.3936936778
 H        -3.7267480085        0.7333972068      -20.2352329620
 H        -1.1456141197        1.5551901389      -22.5851548308
 H        -1.0543538626       -0.1708664981      -22.8140378315
 H         0.3377144446        0.5567898146      -21.9467489017
 H         1.5279595489        4.3165948681      -16.9027124988
 H         1.5502655445        5.7174419888      -17.9031953339
 H         2.9313582378        5.1911186823      -17.0104384084
 H         2.3522318049        5.7099844232      -20.0767820671
 H         3.3818209469        4.2013877482      -20.7228274514
 H         3.8987691177        5.3105727892      -19.5141167772
 H         3.4389346525       -1.2295127882      -16.5384445853
 H         3.8780656010       -2.8751375533      -16.7615816473
 H         2.4358331609       -2.2101033339      -17.5099854198
 H         6.4092870333       -1.1635788801      -19.1208841143
 H         6.2325771010       -2.7080803494      -18.1558903765
 H         6.1699331909       -1.1807461062      -17.3320827060
 Na        0.8701221579       -1.5459136653      -19.5035991554
 Na       -3.7276407781       -3.0617564610       -5.9946341046
