232

 C       -17.7983995506       -4.8795329166       -4.3470005275
 C       -18.4052466101       -6.1170802027       -3.7515080653
 O       -17.7502840729       -7.1679303341       -3.8146097983
 C       -19.9249965763       -5.9473823246       -3.1169409828
 C       -19.7246528581       -6.3007760335       -1.6017493714
 O       -19.4800708359       -7.4746599316       -1.2658408193
 C       -19.9927517828       -5.2651804515       -0.5250774017
 C       -18.8290566848       -5.2514016385        0.4492591988
 C       -17.4605879808       -5.1589084694       -0.3033287762
 O       -17.4259554396       -4.8331530631       -1.4568138719
 C       -16.0646434736       -5.5504251113        0.3171390677
 C       -15.9810932031       -7.1609809317        0.0806752498
 O       -17.0885788420       -7.7492913866        0.1587947512
 C       -14.7074998990       -7.9733310374       -0.2677365668
 C       -14.8537129467       -9.5007727637       -0.3671473715
 C       -14.8216838403       -9.9685367389       -1.8503692915
 O       -15.8565029820       -9.8684693828       -2.5126689687
 C       -13.5719993406      -10.5244352623       -2.5681019397
 C       -13.1616796069       -9.4038492311       -3.7182442844
 O       -13.4224670012       -8.2431916761       -3.5987118282
 C       -12.2197895128      -10.0022863155       -4.7055840532
 C       -11.6313339398       -8.9216768943       -5.6406935673
 C       -10.1984361408       -9.2264833252       -5.8441350488
 O        -9.6103034271       -9.7938460202       -4.9382601156
 C        -9.4763905923       -8.7298748026       -7.0723972270
 C        -9.2627852081       -7.0867795388       -6.9418166962
 O        -9.7288864386       -6.3551637336       -6.1281564255
 C        -8.4165746821       -6.6044510479       -8.0391795880
 C        -8.2531867245       -5.0849715494       -7.9670783109
 C        -8.6664814878       -4.2498955618       -9.1994372383
 O        -9.3148740337       -4.8364595665      -10.0763065344
 C        -8.4633291843       -2.6986117285       -9.3164497525
 C        -7.1503065937       -2.6472685053      -10.0662812948
 O        -6.1193740430       -2.2966471654       -9.5391284155
 C        -7.1990643238       -3.0562349360      -11.5411450736
 C        -5.8318563962       -3.3302002677      -12.2405057734
 C        -5.0893685106       -1.9945606965      -12.6177468673
 O        -5.4422894187       -0.8790937809      -12.1772247901
 C        -3.9708306525       -2.2074813098      -13.7371506385
 C        -2.6073652263       -2.8135937314      -13.1801386454
 O        -2.6654622960       -3.5504203045      -12.1903237139
 C        -1.3094419254       -2.7937910753      -14.0814510013
 C        -0.1254407584       -3.3898915118      -13.2514388325
 C         0.6563266416       -2.0864365189      -12.5211073392
 O         0.5723255166       -0.9945107421      -13.0310802955
 C         1.5398352934       -2.2780022953      -11.2056583519
 C         2.4685919672       -1.0545993102      -11.0402219627
 O         3.6370158099       -1.1245055906      -11.3093880447
 C         1.9707405085        0.3779859361      -10.5293963601
 C         3.2679107637        1.3106542413      -10.0867285802
 C         3.0436621420        2.7499549601      -10.5811994888
 O         2.4273793126        2.9340415216      -11.6078006537
 C         3.7724215373        3.9829064408      -10.0205217368
 C         4.2701661027        4.5794455525      -11.4739205404
 O         5.3514989690        4.3366283514      -11.8577946142
 C         3.3662291457        5.3816629494      -12.3455920831
 C         4.0038141290        6.8178808395      -12.4119519584
 C         5.1363808841        6.9792919238      -13.4472325954
 O         5.2041806073        6.3864333141      -14.5064416385
 C         6.1705003098        8.2004494934      -13.1984512774
 C         7.5483922546        7.6854200521      -14.0749909380
 O         7.8234009777        8.1924777390      -15.1075272720
 C         8.4033763585        6.5693577158      -13.5081343934
 C         9.3080960171        6.0497265799      -14.5837201887
 C         8.6525667098        5.4739171937      -15.8772215199
 O         7.6012621949        4.8578649399      -15.8767402508
 C         9.2867016795        5.6996881513      -17.3430492637
 C         9.6248611291        4.2710631080      -17.9456492856
 O         9.5339697286        3.2768450403      -17.2393767628
 C        10.0755909774        4.2444287417      -19.4467982019
 C         9.8375931462        2.9299749865      -20.0337967599
 C         8.2550023802        2.6777323568      -20.0587037463
 O         7.4371393927        3.5574448810      -20.2845598602
 C         7.9020446596        1.0996984239      -20.1058012570
 C         8.3770335159        0.6903622128      -18.6095924402
 O         9.3839274889        0.0468935365      -18.5242725940
 C         7.6130157816        1.3370930874      -17.3537246402
 C         8.1644780530        0.9090358765      -16.0220115312
 C         7.2737960221        1.4280400997      -14.7558010137
 O         7.5590650717        2.5318548806      -14.2816592057
 C         6.0562285102        0.5459357106      -14.2122400360
 C         4.6128015603        1.1136244979      -14.6251765157
 O         4.4396759094        2.2993267529      -14.8955061717
 C         3.4724290256        0.0753966868      -14.5193113677
 C         6.1685951042       -0.8458411758      -14.6873993422
 C         6.1410724269        0.6057158772      -12.6599568713
 C         6.4337411160        0.9196393460      -20.3609581420
 C         8.8578320420        0.4592139445      -21.0427857184
 C         8.0803093949        6.2803248963      -18.2110554568
 C        10.3476389452        6.7964919551      -17.3741420888
 C         5.4884619722        9.3714753923      -13.9552753050
 C         6.6346317816        8.5782078418      -11.8013367964
 C         2.8139136589        4.9346516937       -9.3953110074
 C         4.9968394137        3.7676154406       -9.1552299898
 C         0.5214948236       -2.4805738365      -10.0311110911
 C         2.3261000841       -3.4913795510      -11.3310770491
 C        -4.4603857152       -3.3120274746      -14.7846459925
 C        -3.7445747665       -0.8310095050      -14.3325353774
 C        -9.6734642226       -2.2450304894      -10.2385606385
 C        -8.4730914645       -1.9246337159       -7.9709280461
 C        -8.1289720092       -9.4491417306       -7.1943243577
 C       -10.2661161782       -8.9124596124       -8.4547928495
 C       -12.4303085768      -10.8412467154       -1.6962322460
 C       -14.0972006939      -11.8011535645       -3.3845267586
 C       -14.8827562021       -4.8212177234       -0.4323172922
 C       -16.0796865511       -5.2427876343        1.8289445948
 C       -20.7010675983       -4.5646652503       -3.3195559981
 C       -20.7570358719       -7.0472157338       -3.8484461742
 H       -18.1168120515       -4.0742787188       -3.6333024462
 H       -18.2003012168       -4.5978268415       -5.2880102602
 H       -16.7505474963       -4.9621642246       -4.3651787284
 H       -20.9146450190       -5.6169036360       -0.0580268677
 H       -20.2050656078       -4.2645702694       -0.9989953325
 H       -18.8645397199       -6.1824217769        1.0827452250
 H       -18.9387631653       -4.3751267700        1.1308940340
 H       -13.9214211973       -7.7583997369        0.4412604960
 H       -14.1851093674       -7.6300310782       -1.1773339047
 H       -15.7733572617       -9.7446932970        0.0345804921
 H       -14.1438422893      -10.0517416150        0.3610594497
 H       -12.7021363363      -10.7883362652       -5.2823552640
 H       -11.5162312697      -10.4490442294       -3.9475382318
 H       -11.7829412896       -7.9145701253       -5.2491523254
 H       -12.1705815716       -8.9149580091       -6.5919798888
 H        -8.9027704794       -6.7026866000       -8.9941101581
 H        -7.5051172339       -7.1343244764       -7.9110194158
 H        -7.2477217843       -4.8449741029       -7.6499172618
 H        -8.8858963932       -4.6532157122       -7.1285370006
 H        -7.6549314524       -2.2307601478      -12.1407317388
 H        -7.9301641986       -3.9280788704      -11.6996428891
 H        -6.0260677680       -3.8537841369      -13.1258751155
 H        -5.0830092060       -3.9228868416      -11.5601020725
 H        -1.0100386706       -1.8733926419      -14.6588748134
 H        -1.5297635922       -3.4660375345      -14.9249974202
 H         0.5164172839       -3.8171349182      -13.9141433191
 H        -0.4442424912       -4.1201068290      -12.4822882411
 H         1.4890464108        0.1787988468       -9.5018822175
 H         1.3220922163        1.0427315454      -11.1595789698
 H         4.0279489066        0.8128687545      -10.6297066490
 H         3.4115847488        1.3123186632       -8.9827951511
 H         2.3692323519        5.1395006517      -11.9705142995
 H         3.5194623477        4.8229096227      -13.2577103699
 H         4.3729016940        6.9681863487      -11.4385608467
 H         3.2135623187        7.4643393240      -12.7550620261
 H         7.6580828807        5.7654124921      -13.2115604558
 H         8.9351417788        6.9466196899      -12.6126934058
 H         9.9144849393        5.1950726411      -14.2599735260
 H        10.1123422632        6.9070871707      -14.8394646011
 H        11.1218275628        4.4627993383      -19.3704521290
 H         9.5586946882        5.0868566674      -19.9292664684
 H        10.3082663744        2.1790443528      -19.4254519478
 H        10.2665737084        2.8483697708      -21.0775173601
 H         6.5845331523        0.8824417159      -17.3174214033
 H         7.4023231596        2.4535252389      -17.5306561218
 H         9.2163815755        1.2870469109      -15.8015503027
 H         8.1988685277       -0.2155906210      -15.9082659740
 H         3.4209332389       -0.4019750807      -15.5672941386
 H         2.5380433293        0.5493236318      -14.5439218986
 H         3.6543315560       -0.7921877014      -13.8703980748
 H         5.2506884966       -1.4143298839      -14.4284790786
 H         6.9745654329       -1.4613769386      -14.4863458905
 H         5.9892366647       -0.6699734024      -15.7604443530
 H         5.4977038092       -0.0511798254      -12.0245973017
 H         6.0480218526        1.6259495000      -12.2435049581
 H         7.0655390396        0.1210987590      -12.2723825490
 H         5.9422963370        0.1763354543      -19.7761485670
 H         6.3117263726        0.9099616616      -21.4082954203
 H         5.9844110429        1.7938126592      -19.9449242317
 H         8.9090255626       -0.5884590674      -20.6954975622
 H         9.9131436970        0.7713428810      -21.0121648198
 H         8.6040762829        0.6898119269      -22.0938411701
 H         7.9235276662        7.2513783304      -17.9051204559
 H         7.1788799909        5.7121318005      -18.0517000706
 H         8.4382797649        6.3585597238      -19.2366629892
 H        11.1670280678        6.5245720102      -16.6603552088
 H         9.9542927265        7.6481322961      -16.8889420970
 H        10.7123651887        6.8775546377      -18.4172926062
 H         6.0201146914       10.2090004409      -13.5800471260
 H         4.4073043387        9.4621393944      -13.7453585071
 H         5.7262119033        9.3766803840      -14.9997233905
 H         7.2944512404        9.4452301325      -11.9641545620
 H         7.2531850462        7.8365842609      -11.3978743303
 H         5.8854359894        8.9481700616      -11.1272548756
 H         2.5689684592        4.4987153238       -8.4647798560
 H         1.9290276634        5.0679238668      -10.0409339745
 H         3.2362972597        5.9114607295       -9.0650506807
 H         5.4121407254        4.7219828639       -8.8048751908
 H         5.7405624664        3.1956171497       -9.6896771095
 H         4.7487903882        3.2672887876       -8.2687472800
 H        -0.0617000452       -1.5320335785       -9.7953823283
 H         1.1510232123       -2.7431937316       -9.2153513226
 H        -0.1779707105       -3.2521723560      -10.3450788074
 H         1.7004499697       -4.3264603337      -11.4252691493
 H         3.0085150374       -3.6464064171      -10.5621866785
 H         2.8058121405       -3.3830642071      -12.2657960859
 H        -4.4032343274       -4.3061390368      -14.3552326968
 H        -3.8010177051       -3.1979643240      -15.7176804018
 H        -5.4891254663       -3.0756564404      -15.0347828635
 H        -2.6825045803       -0.7278324009      -14.5313095869
 H        -3.9529895193       -0.0719555384      -13.5686138269
 H        -4.3437944561       -0.5614788066      -15.2518419116
 H       -10.5803150128       -2.7600393324       -9.9956889065
 H        -9.6394263591       -2.3316138650      -11.2968449714
 H        -9.8392100129       -1.1114903727      -10.0941989236
 H        -8.5808716838       -2.6727457797       -7.1474817121
 H        -9.3403726809       -1.2905920541       -7.9258034551
 H        -7.5732389287       -1.3712581886       -7.7181886256
 H        -8.0411093721      -10.2241991058       -6.4408771346
 H        -7.3465392242       -8.7659661554       -6.9045495109
 H        -7.9587593275       -9.8227681413       -8.1912787477
 H       -10.5438852190      -10.0075947676       -8.4903398001
 H        -9.6263407854       -8.6973681030       -9.2993343682
 H       -11.0333019768       -8.1480343677       -8.4442634587
 H       -12.0231026929       -9.9290006647       -1.2882569814
 H       -11.5629574466      -11.3212093892       -2.2359858957
 H       -12.5765593741      -11.5803699190       -0.8753276596
 H       -14.7311821367      -11.6766811142       -4.2065107395
 H       -14.6609475083      -12.4640375743       -2.8019478300
 H       -13.2301472276      -12.3932181683       -3.6238754432
 H       -14.9161092361       -4.7904122651       -1.5505012711
 H       -13.9022679562       -5.1731483636       -0.2086219601
 H       -14.8333621586       -3.7897314884       -0.1939609849
 H       -16.6361971863       -5.9230365725        2.4878702104
 H       -16.5107173284       -4.2717198718        1.9230300425
 H       -15.0356529320       -5.2374405462        2.2579019797
 H       -20.1249810308       -3.8038551843       -2.8288443751
 H       -21.6455683532       -4.5817482390       -2.8228614360
 H       -20.6858061420       -4.4128568225       -4.4724443105
 H       -21.6963833450       -7.0108504409       -3.4109182429
 H       -20.2888368196       -8.0311122438       -3.7506686424
 H       -20.7657242475       -6.8459729188       -4.9549009300
 Na      -17.4822561961       -8.4724199463       -2.0075978002
 Na        5.8962235500        4.1347313619      -14.3097162777
