232

 C         4.8526584478       -3.0927648918      -20.4452219829
 C         3.7292652505       -2.6411468807      -19.5010974259
 O         2.6273260122       -2.8533200874      -19.8684335895
 C         4.0073566292       -1.7743494681      -18.2273691585
 C         3.6066183148       -0.3061823576      -18.6554355472
 O         2.4781482480       -0.1388736690      -19.0242825708
 C         4.6478222590        0.9373984872      -18.4702113504
 C         4.0968922565        2.2761344538      -19.0537432528
 C         3.0400188361        3.1598619830      -18.1823017805
 O         2.7402106918        3.0221247400      -17.0318907268
 C         2.2186347899        4.3148810681      -18.9345484095
 C         0.8736490180        3.6656970039      -19.5316414346
 O         0.8509934206        3.2706670191      -20.7018175608
 C        -0.1803848966        3.3829622738      -18.5488106056
 C        -1.3285242692        2.6090546063      -19.3511822701
 C        -1.1260022152        1.1124339749      -19.4865640597
 O        -0.4658459572        0.4841404625      -18.6970990935
 C        -1.8929817987        0.3772561402      -20.6931518970
 C        -1.6736009223       -1.1214875796      -20.4487487979
 O        -0.7824086506       -1.8321232905      -20.8923259672
 C        -2.7484472820       -1.8182436104      -19.4840391300
 C        -2.4714958927       -3.2921075842      -19.3879723446
 C        -1.5597121595       -3.7407447274      -18.2367567374
 O        -0.4407621172       -3.2880830399      -18.2165124951
 C        -1.8456158815       -4.7875129966      -17.1079979454
 C        -2.7577973273       -4.0894869011      -16.0574582566
 O        -3.8452184275       -3.7092931451      -16.3564999004
 C        -2.2130720080       -3.8484315553      -14.5084557173
 C        -3.2036722246       -3.1697851835      -13.5232672122
 C        -2.8376209077       -3.6842518173      -12.0581154001
 O        -2.0956815826       -4.5965851867      -11.8063498118
 C        -3.3519760422       -2.7368030416      -10.8984642676
 C        -3.4656486803       -3.2281176383       -9.3413573559
 O        -3.5031830291       -2.3474049109       -8.4966959766
 C        -3.3141496377       -4.7210316131       -9.0257150310
 C        -1.8469849533       -5.0306895720       -8.8166899533
 C        -1.4206385004       -4.7911004490       -7.3512984969
 O        -2.2345090648       -4.5472113068       -6.4809598435
 C         0.0821969011       -4.9978415758       -6.8640588256
 C         0.9606689622       -3.7602945656       -7.3372040440
 O         0.9179380968       -3.4513147904       -8.5493218734
 C         1.9254368223       -3.1011638034       -6.4209681567
 C         2.2790818349       -1.6726937715       -6.8001507195
 C         2.1807115680       -0.7251524112       -5.5969818019
 O         2.4393567404       -1.1147966862       -4.4812388297
 C         1.9977383669        0.8425379484       -5.9604704047
 C         0.3828581209        1.1326382918       -5.9456897647
 O        -0.2522880904        1.6678534075       -6.8378689192
 C        -0.2801349259        0.5513670279       -4.6688219321
 C        -1.8277169803        0.9231774461       -4.5608978968
 C        -2.7600685173       -0.1677894713       -4.9874326511
 O        -2.3575514823       -1.2561631758       -5.3898560475
 C        -4.2500862649        0.1381356607       -4.9234346859
 C        -4.9104782546       -0.1473980729       -6.3888058039
 O        -5.2736617919       -1.3020920691       -6.6171008688
 C        -5.1108812281        0.9639446839       -7.3996778452
 C        -6.3915065404        0.6662873850       -8.2224878665
 C        -7.5788430546        0.5974377779       -7.3038851484
 O        -7.8106218631        1.4861677122       -6.5412668700
 C        -8.6276365309       -0.5831363349       -7.5422680229
 C        -7.7448213782       -1.9522999608       -7.6942965999
 O        -7.4160382244       -2.3488685762       -8.7798163181
 C        -7.6007035983       -2.8295805485       -6.4227485026
 C        -6.9655179376       -4.2034706970       -6.7004994986
 C        -6.3615086907       -4.8545125993       -5.4575879701
 O        -5.2904193530       -4.5055270745       -4.9907164146
 C        -7.2016348942       -5.9504654098       -4.7016141730
 C        -8.6959579367       -5.3962166814       -4.3419724156
 O        -9.5193647457       -5.3409474416       -5.2378186678
 C        -8.9788040203       -5.2766422930       -2.8257239567
 C       -10.4486233742       -4.9656341857       -2.5433020347
 C       -10.8514722530       -3.6129744575       -3.0974125832
 O       -10.4125119086       -3.0618451833       -4.0635611297
 C       -12.3300777656       -2.9742699737       -2.6129903198
 C       -12.1488324805       -2.2992043557       -1.2231198871
 O       -11.9334724336       -2.8929738885       -0.1678670612
 C       -12.5655579385       -0.7390371843       -1.2176078936
 C       -11.5306778901       -0.0119544638       -0.3684254047
 C       -10.1488602461       -0.2423550367       -1.0135553438
 O        -9.9580809623       -1.2408172020       -1.7157669361
 C        -8.9822167840        0.7863942064       -0.7305507340
 C        -8.0517933086        0.7127970475       -2.0247495332
 O        -6.9294567323        0.1804186232       -1.8690115460
 C        -8.6223681871        1.3838452925       -3.2012527581
 C        -9.3991748585        2.2503089924       -0.5121693729
 C        -8.2224705079        0.1606549701        0.4600771474
 C       -12.8483164074       -2.0570532373       -3.6944115117
 C       -13.3360994942       -4.1591182004       -2.3579100434
 C        -7.4451859371       -7.0235213380       -5.8503015191
 C        -6.3608360190       -6.5080427363       -3.6007814635
 C        -9.6157649492       -0.6562418304       -6.3375518473
 C        -9.4454499438       -0.4550654694       -8.8311445016
 C        -4.8270226555       -0.8324171062       -3.8886497624
 C        -4.6070779709        1.6208635907       -4.5179877810
 C         2.6511630498        1.8565319993       -4.8756853408
 C         2.6404492167        1.1743357509       -7.3236926468
 C         0.0877224151       -5.2131677624       -5.2967972295
 C         0.7084105038       -6.2185685914       -7.6316521644
 C        -2.1965536178       -1.6551334667      -10.7047103565
 C        -4.8122304733       -2.2662510600      -11.1084939256
 C        -2.5615930440       -6.0058923003      -17.6716469428
 C        -0.5217177816       -5.2582863715      -16.4826948491
 C        -3.3796854944        0.9294791703      -20.9344046009
 C        -1.1378622510        0.6862388655      -22.0306244425
 C         1.9201632778        5.3392659257      -17.8154151907
 C         3.0467515682        4.9901964712      -20.0800476653
 C         3.1785300186       -2.1480737737      -17.0271665029
 C         5.5173966418       -1.9596415281      -17.9298594960
 H         5.6283512713       -3.6191238694      -19.9282999584
 H         5.2306262684       -2.2126352705      -20.9971999408
 H         4.4246325463       -3.6856332849      -21.2841057378
 H         5.5758778832        0.6616878447      -18.9942034543
 H         4.9347174873        0.9422688790      -17.3768961045
 H         3.5556728515        2.0657656118      -20.0168901051
 H         4.9544481428        2.9759967572      -19.1658831120
 H        -0.5669117799        4.3800646046      -18.2472565854
 H         0.2225877053        2.9071999799      -17.6263214881
 H        -1.4106608652        3.1105105572      -20.2984404671
 H        -2.3109472017        2.7205304888      -18.8573989010
 H        -3.7321736566       -1.5763895323      -19.8143857002
 H        -2.7434178374       -1.2181923426      -18.5363277800
 H        -1.7454536690       -3.5233004270      -20.1879871210
 H        -3.3743594777       -3.8916006737      -19.3617946875
 H        -1.2753299067       -3.2803280434      -14.4750326798
 H        -1.9658814891       -4.8107975740      -14.1155055394
 H        -4.2353218940       -3.2979816118      -13.8016274687
 H        -3.3006845273       -2.0168080692      -13.4552135518
 H        -3.6624336113       -5.2701099601       -9.9013491903
 H        -3.8793814143       -4.9501378624       -8.0793341917
 H        -1.1553482995       -4.6472403878       -9.5974733823
 H        -1.6807293367       -6.1325363555       -8.8964711777
 H         2.7457714594       -3.8314928654       -6.2435048021
 H         1.5272725557       -3.0835496560       -5.4692466289
 H         1.5975793218       -1.3221305566       -7.5727136989
 H         3.2883653543       -1.5070660325       -7.0361766409
 H         0.2206083476        0.7117660900       -3.7456232461
 H        -0.3451831213       -0.5253031092       -4.8962941917
 H        -1.8866912959        1.6407522738       -5.3381439223
 H        -2.1892471422        1.4747712331       -3.6862975910
 H        -4.2074221983        0.9999507247       -8.0857528338
 H        -5.1628667786        1.9923680717       -7.0305249255
 H        -6.1972236691       -0.2293893256       -8.8008647710
 H        -6.4783866945        1.4688025797       -8.9700752908
 H        -8.5665290731       -3.0390621457       -6.0614753439
 H        -7.0560473593       -2.3029343487       -5.6585853903
 H        -6.1733542442       -4.0715260669       -7.4224770689
 H        -7.7274327359       -4.8149968762       -7.1600613381
 H        -8.3109608304       -4.4280976674       -2.5200913555
 H        -8.6781291115       -6.1834879884       -2.2950611256
 H       -10.6761151642       -5.0210765901       -1.4547697691
 H       -10.9907473773       -5.7693761716       -3.0801965191
 H       -13.6047282174       -0.6636326600       -0.8200090989
 H       -12.7419278803       -0.2200550861       -2.1793157285
 H       -11.5015097920       -0.4462046396        0.6305086172
 H       -11.6670785656        1.0498851851       -0.1491646101
 H        -7.8448278482        1.4916765396       -3.9574493571
 H        -9.0451578433        2.4042838726       -3.0650242387
 H        -9.4801799895        0.7665111519       -3.6540869595
 H        -8.4201354863        2.7829346240       -0.5311935683
 H        -9.8023056393        2.4979558326        0.4995096693
 H        -9.9579918057        2.5891953003       -1.4009315248
 H        -8.5284958408        0.5194029818        1.4418598952
 H        -7.1080286643        0.2261799539        0.4291025564
 H        -8.2545634555       -0.9138385056        0.4054594106
 H       -13.1745397573       -2.6353100767       -4.4607143661
 H       -12.0456415313       -1.3815419268       -3.9150477197
 H       -13.7381141650       -1.4719330909       -3.4158546568
 H       -14.4017825448       -3.8719759397       -2.0004477559
 H       -13.0325578053       -4.6539202936       -1.4313829233
 H       -13.4008369281       -4.6963574206       -3.3402349018
 H        -8.2532490169       -6.6442638961       -6.4392150669
 H        -7.6316271144       -8.0746184956       -5.3810878401
 H        -6.5983112977       -7.1644024078       -6.5567790088
 H        -5.5113086467       -6.9021132546       -4.1047788251
 H        -6.7643776290       -7.3725595947       -3.0333640464
 H        -6.0110189702       -5.7408442577       -2.9383803815
 H       -10.1122497167       -1.5889415656       -6.2067166771
 H       -10.3132168528        0.0806166789       -6.4828666466
 H        -9.0556297842       -0.5089507176       -5.4037282442
 H        -8.7013389642       -0.0100514354       -9.5247415613
 H       -10.2813747652        0.1878405344       -8.8487424149
 H        -9.8478982196       -1.3768575893       -9.2153555657
 H        -5.9300864493       -0.8064593048       -3.9900775424
 H        -4.7357713350       -0.3412344279       -2.9989609237
 H        -4.3112086799       -1.7116233616       -3.9918924936
 H        -4.4414890919        1.7713041815       -3.4713630741
 H        -5.5951533456        1.8730588897       -4.7004958005
 H        -3.9640789477        2.4257917614       -4.9279994585
 H         3.6502525709        2.0052088932       -5.0448347415
 H         2.5199315710        1.5098953606       -3.9066198706
 H         2.0864527499        2.8046416869       -4.9192260425
 H         2.3715676811        0.6546047243       -8.1631247390
 H         3.7140080297        1.0314663832       -7.1291423537
 H         2.4862329784        2.2221179853       -7.6091798040
 H         0.9990492086       -4.9756016166       -4.8490425780
 H         0.0124935516       -6.2974586011       -5.1577738775
 H        -0.7132369801       -4.5436970138       -4.9112512525
 H         0.9302556257       -5.8456810031       -8.6978060023
 H        -0.0717826628       -7.0102531632       -7.8040616667
 H         1.5391302870       -6.7673870381       -7.1116185887
 H        -1.9987957901       -1.2959956723      -11.7060693813
 H        -1.3764171311       -2.1420132168      -10.3323731482
 H        -2.4361062461       -0.8261292469      -10.0533385514
 H        -5.0305006580       -2.2061657776      -12.1181217007
 H        -4.9937652037       -1.2523769995      -10.8593371557
 H        -5.4741866363       -2.9393196541      -10.6742134133
 H        -3.4348462050       -5.7600964786      -18.1882392448
 H        -2.6694869223       -6.8384571547      -16.9043293855
 H        -1.9787681370       -6.5539844828      -18.4055733690
 H         0.1656435453       -5.6294756146      -17.2455816704
 H        -0.7811837282       -6.0632924568      -15.7557327611
 H         0.0019255845       -4.5268692129      -15.8435349302
 H        -3.8719842342        0.4440945712      -21.7475147988
 H        -3.4684898795        2.0256446535      -21.1617717817
 H        -4.1188192198        0.7311001385      -20.2625169846
 H        -0.9403642286        1.7674485316      -22.0897580200
 H        -1.8444563229        0.4582838697      -22.8568947985
 H        -0.2484458977        0.0716058253      -22.1197500214
 H         1.3810003669        4.9848055125      -17.0115342854
 H         1.3794163061        6.1196677851      -18.2275312563
 H         2.8768720171        5.7328903734      -17.3704690735
 H         2.5686257571        6.0066728060      -20.2629223318
 H         2.9226363623        4.3799071277      -21.0833574042
 H         4.0984164654        5.0509688819      -19.7938904191
 H         3.3056661609       -1.5151399485      -16.2361803232
 H         3.3925669561       -3.1313835961      -16.5740378897
 H         2.0894345182       -2.1439527842      -17.2230997776
 H         6.2446118646       -1.4409239151      -18.5960100688
 H         5.8936905816       -2.9979529256      -17.9806517367
 H         5.7691218756       -1.4927900762      -16.9960643143
 Na        0.7125069645       -1.7979453823      -19.2296961770
 Na       -3.7578980263       -3.0405612691       -6.0994359638
