232

 C         4.8487074680       -2.9613653662      -20.3674204009
 C         3.5859012905       -2.5707865968      -19.5488891061
 O         2.4754793394       -2.8853455291      -19.8713046571
 C         3.9926779558       -1.6977259044      -18.2387829876
 C         3.5234490163       -0.1618123675      -18.5460814878
 O         2.3278541633       -0.0467058263      -18.8120636758
 C         4.3493712945        1.0356420305      -18.3037010042
 C         4.0211493966        2.3321558441      -18.9848472965
 C         2.9317982439        3.1064257102      -18.2454748347
 O         2.8225503761        2.8161417650      -17.0571379757
 C         2.2294110096        4.3367019822      -18.9881544008
 C         0.8696755930        3.7335040545      -19.5980467390
 O         0.8366518128        3.4908554337      -20.7724343199
 C        -0.2893254125        3.3310768281      -18.6281431128
 C        -1.4384184505        2.6293139180      -19.2851387269
 C        -1.1576063381        1.1227419156      -19.4998506142
 O        -0.5602344089        0.4452786740      -18.6730907697
 C        -1.8526731674        0.3647190616      -20.7103070857
 C        -1.7035945935       -1.1076716327      -20.3643881124
 O        -0.8149863082       -1.7446365877      -20.9011525544
 C        -2.7536966192       -1.9726614441      -19.5506251674
 C        -2.5860623767       -3.4401024985      -19.4720945178
 C        -1.5299449184       -3.7849199643      -18.2385705513
 O        -0.4838343168       -3.1035384489      -18.1368321674
 C        -1.8541827383       -4.7846817694      -17.0773425893
 C        -2.7645099410       -4.0586623739      -15.9377041576
 O        -3.8366765904       -3.5759449353      -16.2410907944
 C        -2.1697264757       -3.8451176255      -14.4930599463
 C        -3.1213117858       -3.2580682380      -13.4086050058
 C        -2.8157225527       -3.6909647960      -11.9502054066
 O        -2.1100260825       -4.6373873822      -11.7694630358
 C        -3.3400452769       -2.7815403053      -10.7758704031
 C        -3.4201454725       -3.2556667897       -9.3250965472
 O        -3.6955057256       -2.4964149031       -8.4522315018
 C        -3.3136320271       -4.7882028073       -8.9749610600
 C        -1.8147989007       -5.0370335611       -8.7228202201
 C        -1.3514205749       -4.8272391702       -7.2767252356
 O        -2.1430564712       -4.5707123496       -6.4027176565
 C         0.1310736181       -4.9824509115       -6.9084935420
 C         1.0005009039       -3.8301920451       -7.4174300720
 O         0.8637774530       -3.4269686594       -8.5177621489
 C         2.0310917926       -3.1378342915       -6.4001924072
 C         2.3177255881       -1.7166900858       -6.8934246979
 C         2.4049388097       -0.6230585205       -5.6938091079
 O         2.4170243058       -1.0790648860       -4.5693072846
 C         2.0703281281        0.8591384781       -5.9443704901
 C         0.4549407118        0.9620928435       -5.9029842480
 O        -0.1333246354        1.5594406520       -6.8192049468
 C        -0.2409358878        0.4543536151       -4.7467725123
 C        -1.7077437026        0.9536944442       -4.6003003200
 C        -2.7176004883       -0.0367693158       -5.1162908836
 O        -2.3351922703       -1.1203204501       -5.4441914811
 C        -4.3070454123        0.1956032426       -4.9582082784
 C        -4.9513977166       -0.0774811628       -6.3848568925
 O        -5.2309962761       -1.2479771781       -6.5959535838
 C        -5.1058558485        0.8952421923       -7.5241045495
 C        -6.4314277148        0.6328068190       -8.3836108561
 C        -7.6207632027        0.5923862302       -7.4203662058
 O        -7.8057657231        1.4329532084       -6.5550958413
 C        -8.5694981203       -0.6703572418       -7.5257284850
 C        -7.8409421456       -2.0186398423       -7.6288167552
 O        -7.2927957601       -2.3483712463       -8.6772751517
 C        -7.7702260802       -2.8926598213       -6.3977325387
 C        -7.0122166796       -4.2033989161       -6.7920211045
 C        -6.4739032548       -4.7456950316       -5.5633635989
 O        -5.3521786338       -4.4685153604       -5.1293693642
 C        -7.2101781560       -5.9601454975       -4.8196531844
 C        -8.6493835625       -5.5349169633       -4.2543684973
 O        -9.5782881845       -5.3280906741       -5.0230118603
 C        -8.9573382507       -5.3500196803       -2.7981803001
 C       -10.4208266049       -4.9104726956       -2.5469555166
 C       -10.9035497392       -3.6102536577       -3.1593783035
 O       -10.2254786699       -2.9796629647       -3.9914831617
 C       -12.3107612998       -2.9898201029       -2.6812730670
 C       -12.1911746336       -2.2731335898       -1.2715977112
 O       -12.0453854770       -2.8807977550       -0.2166837006
 C       -12.5227010507       -0.7420889301       -1.1090045947
 C       -11.4512441039       -0.0114339467       -0.3568583872
 C       -10.0934036832       -0.2475661989       -0.9795384547
 O        -9.8437257789       -1.2285644533       -1.6588210414
 C        -8.9139334843        0.7965159708       -0.7008326617
 C        -8.1113800043        0.6258399139       -2.0960036866
 O        -7.0034626463        0.1602140759       -2.1070727305
 C        -8.6993206243        1.1697483655       -3.3693928375
 C        -9.2735270416        2.2379619868       -0.5842048340
 C        -8.0734370156        0.2830146218        0.4852282149
 C       -12.8567226544       -2.1074666205       -3.6963661834
 C       -13.3252855257       -4.1627311779       -2.3150778182
 C        -7.4919665363       -7.1382634969       -5.8949234279
 C        -6.3210966678       -6.4342687939       -3.6611346640
 C        -9.7039372546       -0.5685518563       -6.3982392850
 C        -9.2991156127       -0.4780713848       -8.8866053128
 C        -4.8550080871       -0.9238297121       -3.9758154144
 C        -4.5547009133        1.6509912448       -4.4640811165
 C         2.5620467079        1.6486547812       -4.7344995348
 C         2.7055793629        1.2396300537       -7.2792891767
 C         0.1551690260       -5.1421527308       -5.3698616696
 C         0.7038785040       -6.1631848965       -7.6990609160
 C        -2.2560120006       -1.5958237059      -10.7158635069
 C        -4.8359242977       -2.3344659927      -11.0123034185
 C        -2.5544594352       -6.0083670799      -17.7787891085
 C        -0.5428866599       -5.2354573127      -16.4065749125
 C        -3.1925668978        0.8958571668      -20.6522673012
 C        -1.1700856590        0.5223646114      -22.1385120258
 C         2.0148258149        5.3111088954      -17.8604152506
 C         2.9847830610        5.0132574061      -20.2349424191
 C         3.1556200534       -2.0848136507      -17.0597665326
 C         5.5208134102       -1.8651641127      -17.8309604644
 H         5.3573262895       -3.7366107331      -19.7796901158
 H         5.5234260350       -2.1309232886      -20.4932550582
 H         4.6072381450       -3.2735697309      -21.3621251660
 H         5.3809871709        0.7821598769      -18.4881780046
 H         4.3091767639        1.1204910682      -17.1757324769
 H         3.7924612573        2.2598530133      -20.0134893703
 H         4.9746972110        2.9339719171      -18.7428289788
 H        -0.5746138449        4.1032365258      -17.9080280514
 H         0.1609390140        2.5426113648      -18.0041059216
 H        -1.7489867895        3.1144969338      -20.1788074710
 H        -2.3040948688        2.6659098558      -18.6161147587
 H        -3.7053791091       -1.6905438871      -19.9733717110
 H        -2.8521256285       -1.4179341246      -18.6074751592
 H        -2.1248846463       -3.7544648931      -20.3610451262
 H        -3.5535235033       -3.9506016365      -19.2023311596
 H        -1.4212944911       -3.0891671927      -14.6261740619
 H        -1.5616995165       -4.7296611377      -14.1742693571
 H        -4.1966564858       -3.5345944823      -13.5917064581
 H        -3.3282803556       -2.1279941227      -13.5967542049
 H        -3.5483364845       -5.4722520646       -9.7926442349
 H        -3.9467134694       -4.9091127413       -8.0461722665
 H        -1.1986875860       -4.4467520222       -9.4383172661
 H        -1.5345004218       -6.0750503205       -9.0893702254
 H         2.9053137692       -3.7594277469       -6.1900976153
 H         1.6096451582       -3.0745521318       -5.3943861702
 H         1.4840283592       -1.4114011681       -7.5405980290
 H         3.2836267433       -1.6677761833       -7.3933184384
 H         0.2680811773        0.7141336536       -3.7765371330
 H        -0.3591148567       -0.6317795672       -4.7967130683
 H        -1.7442310500        1.9032797862       -4.9939321001
 H        -1.9800028537        1.1038602037       -3.5070054464
 H        -4.2257558428        0.8097543664       -8.0951177925
 H        -5.1695580817        1.9832196820       -7.2712893383
 H        -6.3132880783       -0.3347705369       -8.9945328478
 H        -6.4713740442        1.4638733907       -9.0811706857
 H        -8.7207348239       -3.1923146201       -5.9635056334
 H        -7.2336341737       -2.3369120740       -5.7174334934
 H        -6.2302966239       -4.0009563977       -7.5600174477
 H        -7.7176539060       -4.8917470501       -7.2424460697
 H        -8.2464931674       -4.6040624765       -2.4230031335
 H        -8.7489715242       -6.2451247822       -2.2399826689
 H       -10.5771202997       -4.8114151181       -1.4206623583
 H       -11.0183128234       -5.7835352236       -2.9195101327
 H       -13.5043557374       -0.6916556348       -0.5943297538
 H       -12.7390284828       -0.1832472704       -2.0104870362
 H       -11.4224114107       -0.1415423041        0.7292728370
 H       -11.5879613885        1.1287927520       -0.4419067111
 H        -8.2151140568        0.6463703994       -4.2414817204
 H        -8.3095366293        2.1898487575       -3.5485238937
 H        -9.7853017618        1.2588845212       -3.4650164718
 H        -8.4005748499        2.9217302898       -0.6921073001
 H        -9.5522832294        2.3114228508        0.5230338376
 H       -10.1012264481        2.5173160250       -1.3572785734
 H        -8.4251310518        0.5696775822        1.4764155515
 H        -6.9703575050        0.5935479711        0.4732702205
 H        -7.8882411812       -0.7973187611        0.3852340926
 H       -13.0846880869       -2.6333555947       -4.6161697200
 H       -12.2991077156       -1.2136446456       -3.7220249411
 H       -13.9071547205       -1.8546341149       -3.3559526699
 H       -14.1844889517       -3.9030570811       -1.6389025389
 H       -12.8740664654       -4.8724779056       -1.6255309284
 H       -13.6783677746       -4.4885434947       -3.3036335236
 H        -8.4426622943       -6.9448341255       -6.4328725817
 H        -7.4899089735       -8.0982889450       -5.3608524398
 H        -6.6508198683       -7.2401423018       -6.6562852354
 H        -5.4053379830       -6.9514167674       -4.0536527166
 H        -6.7926632627       -7.1668323634       -3.0482951466
 H        -6.0310703582       -5.6006339221       -3.0380863277
 H       -10.3144622414       -1.4748326119       -6.1865576000
 H       -10.2983887739        0.3120531615       -6.6901920637
 H        -9.2416447108       -0.3223877100       -5.4346619813
 H        -8.5849765636       -0.3546734662       -9.6573130251
 H        -9.9622677713        0.4231136386       -8.9256286739
 H       -10.0069430728       -1.2207110383       -9.0757181173
 H        -5.9080474250       -0.7712324819       -3.9514967469
 H        -4.5905511128       -0.5278600733       -2.9599366495
 H        -4.3838941419       -1.8714092393       -4.2429988657
 H        -4.1371514946        1.8271935017       -3.4680960231
 H        -5.6027330998        1.8593327176       -4.3909239611
 H        -4.0957633780        2.3804901803       -5.0201841013
 H         3.5614132205        1.3938972779       -4.5752451427
 H         1.9797317442        1.3381299936       -3.9038941944
 H         2.4079683601        2.6752538710       -4.8274596548
 H         2.5974460868        0.4759466334       -8.0167869132
 H         3.7777116358        1.3249094175       -7.1223464565
 H         2.2853767213        2.1381449191       -7.7889541367
 H         1.1281801583       -5.5065966066       -5.0236511650
 H        -0.4694711913       -6.0233605719       -5.2180100536
 H        -0.1673833077       -4.2319306587       -4.9475139988
 H         0.4427581458       -6.0279087646       -8.7564175443
 H         0.1388284060       -7.1435784294       -7.3737297206
 H         1.7765340216       -6.3692543122       -7.4737800175
 H        -2.1457227454       -1.2008875124      -11.6615228137
 H        -1.3058806108       -1.9361934132      -10.2476026296
 H        -2.6911507620       -0.7853803333      -10.1220583898
 H        -5.0111606250       -2.1154781477      -12.0286418411
 H        -5.1279275702       -1.3853832375      -10.5611200983
 H        -5.4646961960       -3.1621845216      -10.7245209455
 H        -3.5380376408       -5.8247830742      -18.2268822359
 H        -2.4318475131       -6.9703495541      -17.2604095928
 H        -1.9836727083       -6.2720412686      -18.6903806516
 H         0.2252711086       -5.5742070760      -17.1298287409
 H        -0.7214146934       -5.9441202366      -15.5811755949
 H        -0.0575171288       -4.3656556436      -15.9156273163
 H        -3.8857233844        0.4600283052      -21.2789759138
 H        -3.2690036475        1.9494165899      -20.7741582052
 H        -3.7072848504        0.7331532367      -19.7385385841
 H        -0.9606614400        1.5420197493      -22.4953374517
 H        -1.9671479198        0.0524248770      -22.8497630659
 H        -0.3535760266       -0.0950879979      -22.1329081618
 H         1.2540668069        5.0262342840      -17.1744993487
 H         1.6367198524        6.2401960185      -18.2097677749
 H         2.9101805828        5.4786716923      -17.3291889398
 H         2.3882756081        5.8595748567      -20.6177444812
 H         2.9775622565        4.2878509902      -21.0256028590
 H         4.0489470168        5.2675819548      -19.9401169663
 H         3.4449232855       -1.7442054227      -16.0776071446
 H         3.0228976871       -3.1258436979      -16.9193866451
 H         2.1406329314       -1.7417745182      -17.2051034691
 H         6.3031067767       -1.3920812497      -18.3919121256
 H         5.8558021576       -2.9002378072      -17.8494790797
 H         5.6917330526       -1.3969227414      -16.8139643516
 Na        0.7473866099       -1.7565238671      -19.2018499298
 Na       -3.6346346460       -2.9497558371       -6.2301802181
