232

 C         4.7749502840       -2.6063606494      -20.2661606193
 C         3.5349511678       -2.2634706862      -19.4188339551
 O         2.4391204387       -2.5969439953      -19.7710177016
 C         3.8902216660       -1.5539755391      -18.0817044764
 C         3.4343899399        0.0033079077      -18.3160191036
 O         2.2528605853        0.2069753812      -18.5876915704
 C         4.4729890736        1.1685276514      -18.2011946318
 C         3.9573842174        2.3573347439      -18.9779759283
 C         2.7446901145        3.0998358180      -18.2736600814
 O         2.2621653391        2.7880521901      -17.1902296687
 C         2.2065260639        4.3290738426      -19.0866143511
 C         0.8014008966        3.7900636584      -19.6800438902
 O         0.5059780472        3.9700108914      -20.8379701711
 C        -0.2222471618        3.1394790874      -18.5705657820
 C        -1.3086863644        2.5154806309      -19.4375810383
 C        -1.2785469031        0.9911250572      -19.3300183850
 O        -0.4867768522        0.3510230635      -18.6447056937
 C        -2.0767066845        0.2480514593      -20.5233113874
 C        -1.8793301808       -1.3225286867      -20.3738260600
 O        -0.8996780479       -1.9084774898      -20.7866447262
 C        -2.9788132665       -2.1418491781      -19.6916632110
 C        -2.6110992250       -3.4909605476      -19.0723573178
 C        -1.5919830163       -3.4891676536      -17.8748640362
 O        -0.7491907780       -2.5967153678      -17.6393989805
 C        -1.8155639967       -4.6757192986      -16.8716423008
 C        -2.6144445925       -4.0103152756      -15.7430378350
 O        -3.7159587039       -3.5403021733      -15.9852556091
 C        -2.1647272799       -4.0832696169      -14.2877962190
 C        -3.2489724309       -3.5331848704      -13.3721273894
 C        -2.8387538789       -3.7405378805      -11.9604809641
 O        -2.1310251350       -4.6216449373      -11.5991628190
 C        -3.4900025482       -2.8232214398      -10.8558023705
 C        -3.4807225934       -3.4054029380       -9.3779932723
 O        -3.8475487203       -2.6576897286       -8.5452467382
 C        -3.0404790778       -4.8930405099       -9.0791462689
 C        -1.5320794425       -5.2243668388       -8.6913785792
 C        -1.1334826393       -4.9073168109       -7.2153895917
 O        -1.8527435796       -4.5261020422       -6.3526964963
 C         0.4568798338       -5.2043565723       -6.8622539731
 C         1.0103390846       -3.8228361777       -7.3869683703
 O         0.5402518767       -3.4322133641       -8.4368978847
 C         2.2514498554       -3.1540407374       -6.7245881723
 C         2.4924342924       -1.6382183708       -7.1864236439
 C         2.5208240713       -0.7074669633       -5.7534700884
 O         2.5659429886       -1.3114321359       -4.6855836489
 C         2.2899619559        0.8163954113       -5.7883538125
 C         0.6116946092        0.8400077763       -5.8560775523
 O         0.0875192960        1.2143173623       -6.9153551799
 C        -0.1837295270        0.3204224737       -4.7610478814
 C        -1.6375331916        0.8809643145       -4.7789953256
 C        -2.6589189784       -0.0694891140       -5.4214852534
 O        -2.3545827343       -1.1080419791       -5.9327268611
 C        -4.2201403880        0.2585488235       -5.1196925102
 C        -4.9861173634       -0.0057525150       -6.3699650324
 O        -5.3675926426       -1.1389676218       -6.6210988261
 C        -5.2603736235        1.1066237270       -7.4744914120
 C        -6.4204470483        0.6512457658       -8.3659906090
 C        -7.6168394388        0.4797699778       -7.4972784437
 O        -7.7495792600        1.1633952900       -6.5160196325
 C        -8.7282460100       -0.5932024144       -7.8349291359
 C        -7.9549412534       -2.0055995652       -7.8578032481
 O        -7.0857206398       -2.2067717116       -8.6842161485
 C        -8.2829871790       -3.0071652504       -6.6459340902
 C        -7.4756190012       -4.3122681463       -6.6926245789
 C        -6.6472950092       -4.8835866879       -5.5610544843
 O        -5.5142549509       -4.4501471643       -5.3466942085
 C        -7.2179090515       -6.0159065148       -4.7330356366
 C        -8.6949533566       -5.5558264534       -4.2556580486
 O        -9.5518682368       -5.5322224625       -5.1425362490
 C        -8.7763370979       -4.9842632137       -2.8194532557
 C       -10.2140088538       -4.7213091704       -2.3636661233
 C       -10.8341312061       -3.4598563224       -3.0449671221
 O       -10.0979893766       -2.6768691463       -3.6377613033
 C       -12.2781749740       -3.0725129167       -2.6854076255
 C       -12.1328874381       -2.2746699583       -1.2184856883
 O       -11.8625237680       -2.9613593367       -0.2507792955
 C       -12.3670688490       -0.7349417502       -1.1447363390
 C       -11.2713913960       -0.1122204927       -0.2679237636
 C        -9.8731461600       -0.3124606802       -0.8312085907
 O        -9.5833921341       -1.3795125776       -1.3605213383
 C        -8.8053254430        0.7896940233       -0.8234039827
 C        -8.1105175907        0.6138068301       -2.2800598888
 O        -6.9575442614        0.2788608505       -2.3259544775
 C        -8.9178184695        0.8765039138       -3.5670591381
 C        -9.2287938275        2.1976949221       -0.7759385041
 C        -7.6201876895        0.5090052554        0.1820953615
 C       -12.6994966198       -2.1376620687       -3.8104151719
 C       -13.1806701178       -4.3130712472       -2.5405398125
 C        -7.4234749380       -7.2459250211       -5.6608162302
 C        -6.2716868916       -6.3701177266       -3.6430581570
 C        -9.9259850680       -0.4465561476       -6.8978016505
 C        -9.2461926053       -0.3921992574       -9.2868121394
 C        -4.5637363866       -0.8190316227       -3.9403640224
 C        -4.4688765226        1.7312652521       -4.6626067280
 C         2.9543785182        1.4953093749       -4.5177106437
 C         2.8273149208        1.4919578397       -7.0386588572
 C         0.6649124364       -5.3618406741       -5.3566862578
 C         1.1273351125       -6.3887426715       -7.6276382079
 C        -2.5791096743       -1.5440214902      -10.7989892488
 C        -4.9532556152       -2.4761986214      -11.3894707188
 C        -2.8887615496       -5.7660707127      -17.3086553695
 C        -0.4611469248       -5.3519178185      -16.4764290604
 C        -3.5758998971        0.4103851659      -20.5622464806
 C        -1.4794426695        0.7868217451      -21.8447685752
 C         1.9185431796        5.4896253470      -18.1220159823
 C         3.2290006417        4.8399239056      -20.2490813385
 C         2.9194781959       -2.2496829573      -17.0982663952
 C         5.2629664879       -1.5752086127      -17.4653529288
 H         4.9339205951       -3.6900079078      -20.1662668197
 H         5.7056566645       -2.2031459103      -19.8564170493
 H         4.5748624738       -2.3041888921      -21.3366677539
 H         5.4190048258        0.8598311775      -18.6068458437
 H         4.7390371049        1.3490353045      -17.1337764405
 H         3.7437423779        2.0891179432      -20.0156500831
 H         4.8222449394        3.0715927942      -18.9054648805
 H        -0.5060251722        3.9789198069      -17.9136908780
 H         0.2915216877        2.4148223315      -17.8990979921
 H        -1.2782272848        2.8618824556      -20.4812735651
 H        -2.3440260908        2.8340113746      -19.1307663700
 H        -3.7258322265       -2.2263061711      -20.4627871305
 H        -3.4480382703       -1.3705632090      -19.0329050859
 H        -2.0953207858       -4.1771617267      -19.7489330093
 H        -3.4604305601       -4.0131282872      -18.5739503895
 H        -1.1349685785       -3.6714860348      -14.2172288550
 H        -1.9448465376       -5.0601327972      -13.9133072163
 H        -4.0812041241       -4.1956123470      -13.5092425907
 H        -3.6158864956       -2.4813896997      -13.6818634595
 H        -3.3226714331       -5.5925386204       -9.8232996086
 H        -3.5616412088       -5.1745037454       -8.1341876286
 H        -0.7239959332       -4.9701021043       -9.3475466017
 H        -1.4301611891       -6.2943900335       -8.7720388481
 H         3.1773663662       -3.7876600932       -6.8612340602
 H         2.0624505418       -3.2108399131       -5.6923384452
 H         1.7392083657       -1.3017575663       -7.9191866953
 H         3.4700605423       -1.5707402239       -7.5757997394
 H         0.2310323620        0.4464450210       -3.7853199298
 H        -0.3314624416       -0.7564515842       -4.8811799239
 H        -1.6013261765        1.8288959428       -5.2165964525
 H        -1.9022488248        1.0907539975       -3.7039869908
 H        -4.2966207418        1.2232767478       -8.0500271417
 H        -5.5581405206        2.0931909051       -7.0652873229
 H        -6.0254740150       -0.2565370899       -8.7850430340
 H        -6.7156126292        1.3751804483       -9.1042339715
 H        -9.3519326801       -3.2630991534       -6.5520027253
 H        -7.9566351391       -2.4050967746       -5.7663573702
 H        -6.8873580450       -4.2287024735       -7.5989498642
 H        -8.2165918177       -5.0158501616       -7.0263129751
 H        -8.2235219927       -4.0007877636       -2.7325380499
 H        -8.1144977967       -5.5735429284       -2.1431898202
 H       -10.3644276142       -4.6003842859       -1.2931311535
 H       -10.8266327165       -5.5598811327       -2.6440627300
 H       -13.3483429141       -0.5009256390       -0.6485826910
 H       -12.2926222349       -0.2840535516       -2.1677089241
 H       -11.3920490130       -0.4238149983        0.7356687329
 H       -11.3771908061        0.9586432615       -0.2772828991
 H        -9.9733573962        1.1019986379       -3.3982548743
 H        -9.0978293164       -0.0385100833       -4.0929811584
 H        -8.4108897804        1.6620448293       -4.1598114564
 H        -8.3651505862        2.7293591416       -0.7657464079
 H        -9.7714579714        2.4072568110        0.0912771977
 H        -9.8545601808        2.4560895690       -1.6038679695
 H        -7.9346956407        0.0190363099        1.0582843711
 H        -6.9708187215        1.3011597140        0.6138358807
 H        -7.0699815220       -0.2538633188       -0.3165746295
 H       -12.8195860663       -2.7619418555       -4.6337237234
 H       -11.9955378318       -1.3532178369       -4.0087759321
 H       -13.7330711784       -1.7472979043       -3.6351844559
 H       -14.2755537612       -4.0607427589       -2.7903706853
 H       -13.1230724323       -4.3735195393       -1.4758661239
 H       -12.8434061418       -5.1895162447       -3.0888479181
 H        -8.0699557589       -6.9965809235       -6.4269193431
 H        -8.0233287065       -8.0162121957       -5.1228673605
 H        -6.4879990682       -7.6973566309       -5.9621550721
 H        -5.3393112121       -6.6082502075       -4.1475299411
 H        -6.5881774536       -7.2951414805       -3.1352385760
 H        -6.1143686583       -5.6554063144       -2.8611604689
 H       -10.7374733781       -0.6851402730       -7.5379717824
 H        -9.9783853006        0.4987444126       -6.4610326886
 H       -10.0123305339       -1.1400782843       -6.0590072242
 H        -8.8745863178       -1.2241617993       -9.9279488946
 H        -9.0192673947        0.5795100740       -9.7995333788
 H       -10.3297255904       -0.3708736292       -9.2820447616
 H        -5.6462739780       -0.7486273814       -3.9427930278
 H        -4.2853320304       -0.3432363544       -3.0472544713
 H        -4.0184720235       -1.6950518741       -4.0678779899
 H        -4.0254164787        2.0658660779       -3.6646227498
 H        -5.5308985673        1.9706069445       -4.6192202345
 H        -4.0121096458        2.3962529515       -5.4190664686
 H         4.0092757370        1.2891738510       -4.5120870972
 H         2.4047021870        1.0390407261       -3.6508121411
 H         2.7644767355        2.5998125930       -4.5294407906
 H         2.3949078922        1.0878574397       -7.8671702788
 H         3.9042114792        1.2864202870       -7.1244992565
 H         2.5796510921        2.5910596439       -7.0486904983
 H         1.7258102479       -5.5676499534       -5.2512520018
 H         0.0743699406       -6.1983772381       -4.8889069626
 H         0.3680949802       -4.4224145977       -4.8456227530
 H         1.1078174250       -6.1971968050       -8.6597407150
 H         0.5979975612       -7.3715872366       -7.5651462096
 H         2.1328012111       -6.4259685864       -7.3343749284
 H        -2.7853982165       -0.8512921987      -11.5973378628
 H        -1.5706493155       -1.9304978213      -10.7187793939
 H        -2.8286119911       -0.9473097604       -9.8903561892
 H        -5.0423059499       -1.5024139923      -11.8055677610
 H        -5.6256902955       -2.3996016283      -10.4784333527
 H        -5.3962738241       -3.2415134540      -12.0225318001
 H        -3.7983083871       -5.3012016301      -17.4804010460
 H        -2.9752987772       -6.5745515013      -16.5334452995
 H        -2.6673012476       -6.2838640969      -18.2073086142
 H         0.0517742952       -5.7780034946      -17.3056789928
 H        -0.5505175970       -6.0923073846      -15.6725566471
 H         0.2579256867       -4.6267273570      -16.1734505511
 H        -3.9797200481       -0.3560929520      -21.2650118221
 H        -3.9827026274        1.4487741668      -20.7726569291
 H        -4.1806606923        0.3426339388      -19.6828361477
 H        -1.8267687144        1.7985506828      -22.0598375164
 H        -1.8911346995        0.1888150081      -22.7545493585
 H        -0.4939205472        0.7560505576      -21.7064740075
 H         1.5042713659        5.2210210658      -17.1544956602
 H         1.1684228062        6.2201957323      -18.4608527124
 H         2.8728216211        6.1023914238      -18.0445471861
 H         2.7682927878        5.4492274447      -21.0301202405
 H         3.5243740866        3.9793338949      -20.8384088179
 H         4.0517862951        5.3821110135      -19.7489091715
 H         3.0406284550       -2.0550943547      -16.0760669499
 H         2.9960351363       -3.3587568331      -17.1833216210
 H         1.8132749945       -2.1432245981      -17.2619138492
 H         6.0159724439       -1.1323020030      -18.0951338972
 H         5.6970904541       -2.5420986521      -17.2444368591
 H         5.3622122446       -1.0494080457      -16.4928050961
 Na        0.6975777041       -1.3521755751      -19.1864001522
 Na       -3.9972275834       -3.0317248606       -6.2066381935
