232

 C         4.9510205831       -2.4002243405      -20.2732254962
 C         3.7566484480       -2.1533946160      -19.3080151099
 O         2.6567473364       -2.1954518627      -19.8876691616
 C         3.8616322500       -1.5905818873      -17.8120279901
 C         3.3477113846        0.0146444188      -18.1537908867
 O         2.2799193576        0.2561326980      -18.6106938736
 C         4.4773779063        1.1427859326      -18.1548403421
 C         4.0442561434        2.5007888259      -18.7680962047
 C         2.7460583972        3.1247647077      -18.2415194515
 O         2.3107076964        2.7928412679      -17.1721309679
 C         2.1429048329        4.3873532666      -19.1542679617
 C         0.6870710941        3.9350484500      -19.7338671338
 O         0.4970431173        4.1562635900      -20.8940523461
 C        -0.3878670664        3.1724031434      -18.8303398870
 C        -1.7118673998        2.6617942501      -19.3721224699
 C        -1.5974465072        1.0819092206      -19.3951550255
 O        -0.9875338193        0.4629069188      -18.5683161880
 C        -2.2459251795        0.2556132999      -20.5166815368
 C        -1.9941063310       -1.2465669084      -20.2753114273
 O        -0.9649617807       -1.7747216816      -20.6668641745
 C        -3.0467422777       -2.1913306577      -19.5658103120
 C        -2.5141686329       -3.5568763518      -19.3326518474
 C        -1.7100755709       -3.5477500159      -17.8656387956
 O        -1.0258965919       -2.6284898574      -17.6289721475
 C        -1.9131661704       -4.7659522026      -16.8012446264
 C        -2.6605934154       -4.0592425350      -15.6027447377
 O        -3.5483283734       -3.3055727166      -15.8541968779
 C        -2.2115664966       -4.2342712670      -14.2024251604
 C        -3.2222587379       -3.6489587412      -13.1907310231
 C        -2.7763882058       -3.9096666462      -11.7897970451
 O        -1.8031991295       -4.6223561262      -11.4864753190
 C        -3.5087063644       -3.0164427028      -10.7158880866
 C        -3.4867878089       -3.5734007726       -9.2810586869
 O        -3.8462988514       -2.7163001623       -8.4773771906
 C        -3.0755082062       -4.9770406844       -8.8342317229
 C        -1.6067462542       -5.2182190186       -8.7350261429
 C        -1.0691170302       -4.9214079489       -7.2731219287
 O        -1.7776890591       -4.3927901448       -6.3975202420
 C         0.4767503750       -5.0471118305       -6.9416724021
 C         1.1739047646       -3.7501950659       -7.5188219545
 O         0.6527118092       -3.0594114826       -8.4050504792
 C         2.4873167297       -3.1852296170       -6.9953276350
 C         2.4540667166       -1.6657900180       -7.0949125349
 C         2.5588588371       -0.9874009154       -5.7798572058
 O         2.7505509584       -1.5309494073       -4.7072329820
 C         2.3340807581        0.6162136455       -5.8185597678
 C         0.8467768905        0.7986367666       -6.0221031790
 O         0.1770740170        1.2410199207       -6.9428988072
 C         0.0488037340        0.3727608747       -4.8031019416
 C        -1.5140613565        0.8178358509       -4.9167557922
 C        -2.5899943473       -0.1311550516       -5.5123403126
 O        -2.3874496759       -1.1888816270       -6.1346559940
 C        -4.0578231871        0.2659754944       -5.1245318285
 C        -4.9939578642       -0.0498594650       -6.4274374628
 O        -5.4571462093       -1.1635604438       -6.5260536467
 C        -5.3044171464        1.0751184084       -7.3698726098
 C        -6.4735192702        0.7791075371       -8.3344038524
 C        -7.7236074266        0.4445032268       -7.5120166865
 O        -7.9374087943        0.9213542792       -6.4232049938
 C        -8.7623233743       -0.5579284432       -8.0776064278
 C        -8.1173418396       -2.1283412896       -7.9694242319
 O        -7.3547860480       -2.3976059481       -8.8637288825
 C        -8.2595004410       -3.0032806093       -6.6465097093
 C        -7.5290374186       -4.4020099986       -6.9273847819
 C        -6.7630588563       -4.8948409686       -5.7328277828
 O        -5.7392701093       -4.3175162380       -5.4028360074
 C        -7.2813012041       -6.0066160613       -4.8354079995
 C        -8.6953580966       -5.5334815881       -4.1966893763
 O        -9.7025946164       -5.6546402441       -4.8331217361
 C        -8.6016180582       -4.7650618896       -2.8060763326
 C       -10.0268882540       -4.4955696050       -2.3687139134
 C       -10.6517607803       -3.3148902125       -3.0482324592
 O       -10.0041099721       -2.6050299645       -3.7565222759
 C       -12.1039723720       -3.0131752651       -2.6623914866
 C       -12.0636186714       -2.3188030399       -1.2886963946
 O       -11.8711762976       -3.0104029015       -0.3277572819
 C       -12.1388693441       -0.7589176734       -1.2216498259
 C       -11.0949533516       -0.1770734923       -0.2053340510
 C        -9.7033039009       -0.4696600812       -0.8338608452
 O        -9.3119189968       -1.6076329769       -0.9682806307
 C        -8.6797102814        0.7272688518       -1.0264144984
 C        -8.0255613527        0.6665198276       -2.4130492784
 O        -6.7995355263        0.6082952384       -2.6432078325
 C        -9.1025232926        0.6488697712       -3.5307987845
 C        -9.3907310880        2.1555368152       -0.7446378228
 C        -7.7980694374        0.5426384231        0.1531233786
 C       -12.8103063488       -2.0898522828       -3.7518474179
 C       -13.0321305501       -4.1817189770       -2.5362748454
 C        -7.3998426889       -7.3878105275       -5.5099933593
 C        -6.2972055278       -6.2196443895       -3.6322307539
 C       -10.0324661061       -0.5387948035       -7.2512540329
 C        -8.9197441169       -0.2915084734       -9.5337553533
 C        -4.5833495931       -0.6229053140       -3.8942553845
 C        -4.1928559331        1.7538397459       -4.7177760215
 C         2.7806988091        1.2955870704       -4.4154782303
 C         3.0452806541        1.2682965957       -7.0371387585
 C         0.6558134234       -5.3384378903       -5.4265161065
 C         1.1504585706       -6.2038596271       -7.7246232736
 C        -2.7163002092       -1.6725801258      -10.8474709199
 C        -5.0070292103       -2.7052361944      -10.9525188024
 C        -2.6635332911       -5.9773053850      -17.2843727855
 C        -0.4637865217       -5.1870998897      -16.3979516655
 C        -3.7487978388        0.7279600518      -20.5310763117
 C        -1.6040264732        0.4541748904      -21.8964644287
 C         1.8078030703        5.6172344486      -18.1665210448
 C         3.0021712272        4.8643415884      -20.4983557701
 C         2.7383649768       -1.9749195838      -16.8242424986
 C         5.2975691901       -1.9482233225      -17.3238101780
 H         5.2299838539       -3.4406141316      -20.2887201166
 H         5.8492838229       -1.9426829129      -19.8664026219
 H         4.6135929159       -2.0670319789      -21.2241916821
 H         5.4364712769        0.7619601944      -18.6167536646
 H         4.8286748947        1.2520175878      -17.1332991069
 H         3.9193167712        2.4092107924      -19.8935960762
 H         4.8379446200        3.2325390794      -18.6092406638
 H        -0.4854933590        3.8339033877      -17.9706374430
 H         0.2463818744        2.3671802675      -18.4481385310
 H        -1.7480067856        2.9926140815      -20.4078116956
 H        -2.5563018381        3.1225437429      -18.9301560206
 H        -3.9766309759       -2.2343524795      -20.1795135452
 H        -3.3249375100       -1.7389080469      -18.6487791342
 H        -1.7584014075       -4.0433008985      -19.9553013091
 H        -3.3254042421       -4.1839346325      -19.2137290259
 H        -1.1742152763       -3.9063712522      -14.1425678533
 H        -1.9875899524       -5.2995504650      -14.0207990977
 H        -4.3070298466       -3.9958486264      -13.4560356616
 H        -3.1163449806       -2.6061294516      -13.3979921889
 H        -3.4766179386       -5.6604628211       -9.6583588669
 H        -3.5360083009       -5.3495362979       -7.9106998849
 H        -1.0534332765       -4.7053721958       -9.5709208207
 H        -1.2999072003       -6.2755696870       -8.9534142508
 H         3.3208679388       -3.6258057569       -7.4864595999
 H         2.4762789539       -3.5947562836       -5.9440063779
 H         1.4425572193       -1.3854610676       -7.3512242663
 H         3.0865147176       -1.1632460859       -7.8686692656
 H         0.3845272342        0.8066039845       -3.8309342802
 H         0.1244864124       -0.7137296900       -4.5708318801
 H        -1.4092716887        1.8099845097       -5.4781376746
 H        -1.8075940148        1.0543168622       -3.9440351662
 H        -4.3847728982        1.2365085418       -7.9172752448
 H        -5.5402755467        1.9736746143       -6.8212817365
 H        -6.1051022554       -0.0856633947       -8.9087653903
 H        -6.6046203805        1.7232737404       -8.9337996305
 H        -9.2801978293       -3.0734260809       -6.3727965623
 H        -7.7469741025       -2.4911471560       -5.8401712249
 H        -6.8415593493       -4.1566001753       -7.7323811346
 H        -8.2148378772       -5.0729140625       -7.4511704594
 H        -7.9502206644       -3.9408144778       -2.8640959734
 H        -8.0481691672       -5.2782743746       -2.0038457295
 H       -10.1697049921       -4.4457741335       -1.2584795174
 H       -10.6105638778       -5.4452053402       -2.6083622323
 H       -13.1046244565       -0.4477600880       -0.8797050288
 H       -11.8344575806       -0.3568776792       -2.1776875975
 H       -11.0910547376       -0.8881218465        0.6787491504
 H       -11.2756555784        0.8616123262        0.1475287961
 H        -9.1564894741        1.4705725992       -4.2375991008
 H       -10.1038523123        0.7925118236       -3.0606878270
 H        -8.9565522337       -0.2175438327       -4.2139653887
 H        -8.7041907472        3.0175609004       -1.1422785986
 H        -9.7628316757        2.3782405595        0.3033373021
 H       -10.3314158015        2.1038343930       -1.3212466780
 H        -8.1483587516        0.5564350138        1.2266184895
 H        -7.1328561293        1.3838319122        0.0355572041
 H        -7.2516949378       -0.4400790641        0.1287843052
 H       -13.1399010991       -2.5227991524       -4.7416594003
 H       -12.0062623715       -1.3717106878       -4.1065689325
 H       -13.5885061601       -1.5955897270       -3.2337983909
 H       -14.0027942865       -3.8518478092       -2.8838316659
 H       -13.0162213928       -4.6282223710       -1.4691324585
 H       -12.5931615544       -4.8926485205       -3.2991048362
 H        -8.0530371864       -7.3799808615       -6.4391503531
 H        -7.9175838351       -8.1488256769       -4.9135243294
 H        -6.3487776605       -7.6775198723       -5.6729011174
 H        -5.3712720862       -6.6667851253       -3.9399500934
 H        -6.7511560240       -6.7428722786       -2.8009161403
 H        -6.0427867683       -5.2331519302       -3.2274904244
 H       -10.7089076246       -1.3059120715       -7.5957609924
 H       -10.5157240674        0.4526491995       -7.2293658888
 H        -9.8314182434       -0.5881749290       -6.1874050147
 H        -8.2684673623       -0.9241985929      -10.1359124014
 H        -8.7976294225        0.7365034513       -9.7792052023
 H        -9.9776283095       -0.5804508988       -9.8173407380
 H        -5.7065247949       -0.4613125219       -3.8066755437
 H        -3.9504494960       -0.4158457254       -3.0362396636
 H        -4.2328553374       -1.6193259315       -4.2407273707
 H        -3.9528034471        1.8212556590       -3.7190879525
 H        -5.2167456287        2.0870310892       -4.7437478038
 H        -3.6216704745        2.4858291635       -5.3173678047
 H         3.7362454383        1.6434358509       -4.6370109322
 H         2.7929241250        0.5971962026       -3.6673682156
 H         2.1529686149        2.1725005067       -4.2753973269
 H         2.2950104709        1.2606847111       -7.8991864633
 H         3.9046541473        0.7036620371       -7.3787323356
 H         3.3554644422        2.2484358284       -6.8135048030
 H         1.4540275528       -4.7338449661       -5.0029491340
 H         0.8449530675       -6.3730664907       -5.2601117940
 H        -0.2953026824       -5.2004443095       -4.8945673106
 H         1.6389357261       -5.9641724365       -8.7715859829
 H         0.4184573590       -6.9964328264       -7.9328739177
 H         2.0383014579       -6.5722265146       -7.1027411628
 H        -2.7025350996       -1.3177338902      -11.9029608255
 H        -1.7381078164       -1.7415792479      -10.4669429085
 H        -3.2806917205       -0.9371620641      -10.3695010467
 H        -5.1407197948       -2.2639223668      -11.9529227204
 H        -5.2955724311       -2.0358996969      -10.2090710218
 H        -5.7039108224       -3.4992505335      -10.8779142165
 H        -3.7746626521       -5.7627265940      -17.3908345271
 H        -2.6243099574       -6.7516175983      -16.5142773314
 H        -2.2902009844       -6.3615378479      -18.2896681660
 H         0.1190028278       -5.6745010768      -17.2184110363
 H        -0.5339872015       -6.0130808601      -15.6766676071
 H         0.2397397751       -4.4161136846      -16.0042011214
 H        -4.2504202924        0.6598406627      -21.4643358071
 H        -3.8480663684        1.7470282990      -20.2430482682
 H        -4.3627582978        0.2908513981      -19.7569589504
 H        -1.8316967509        1.4733032888      -22.2331478582
 H        -2.1522725126       -0.1574647592      -22.5165918486
 H        -0.4641477923        0.2578158473      -21.8256211433
 H         1.3701625116        5.1846436050      -17.3240812853
 H         1.0601390419        6.2504102335      -18.5033891172
 H         2.5954709713        6.3153340323      -17.8793827870
 H         2.7083038481        5.9360362917      -20.6425041020
 H         2.7210593172        4.3152607192      -21.4585212010
 H         4.0283950152        4.9309322048      -20.1938375990
 H         2.6602577710       -1.1062839122      -16.1456594560
 H         2.8316750775       -2.8092091463      -16.1707363019
 H         1.7449368773       -2.1053736546      -17.1554539886
 H         6.1290855352       -1.3662179201      -17.7803804023
 H         5.5782703801       -3.0142157676      -17.3339717020
 H         5.4380643338       -1.7723944883      -16.2787390686
 Na        0.4748945523       -1.5337827226      -19.0300919458
 Na       -3.9626406913       -3.1318882426       -6.3191751061
