232

 C         5.0237559409       -2.2980425595      -20.0329454439
 C         3.6968866535       -2.0426883350      -19.3378249925
 O         2.6036145358       -2.1507757269      -19.8635527504
 C         3.8063544504       -1.4052127305      -17.8802372213
 C         3.4817156530        0.0213682207      -18.2692262142
 O         2.3113751688        0.1711835591      -18.5241779840
 C         4.4387735062        1.2079238088      -18.0093586223
 C         4.0906125542        2.4459006718      -18.8209913760
 C         2.7976480309        3.2412740964      -18.3328893901
 O         2.2967884090        2.9413544944      -17.2685146711
 C         2.0630703037        4.2823563697      -19.1651458970
 C         0.5881255852        3.8744634807      -19.7621723600
 O         0.3087454964        4.1467001518      -20.9070106976
 C        -0.3649979120        3.2819235711      -18.7420255461
 C        -1.5619786315        2.6330706621      -19.4133841180
 C        -1.6031156134        1.0723474208      -19.4510627951
 O        -1.1165553112        0.5087650624      -18.4541201984
 C        -2.3794769176        0.2825771760      -20.6001611376
 C        -2.1346485485       -1.2042914309      -20.2552968207
 O        -1.0754339880       -1.7427688837      -20.5827548367
 C        -3.1631716387       -2.1439317184      -19.4680864181
 C        -2.4546070865       -3.5962506169      -19.3096238820
 C        -1.7372390925       -3.7124923638      -17.9759524869
 O        -1.0500819653       -2.7747997299      -17.6189006947
 C        -1.9305807588       -4.8084643287      -16.9100314054
 C        -2.7420565985       -4.0305299092      -15.7208127823
 O        -3.5483615109       -3.1600812775      -15.9188852011
 C        -2.2417750199       -4.3684310393      -14.1968869269
 C        -3.1744807632       -3.7871226106      -13.0969822938
 C        -2.6540337667       -3.9413734692      -11.6712541228
 O        -1.7700480834       -4.6670060139      -11.3518698010
 C        -3.4705668506       -3.0668631875      -10.6644908719
 C        -3.4199444239       -3.5847926538       -9.1566957746
 O        -3.7994644491       -2.8060883894       -8.3711172070
 C        -3.1253108375       -5.0205545606       -8.8241888994
 C        -1.5700147063       -5.1454082104       -8.6277424997
 C        -1.0983994465       -4.7178513216       -7.2806398744
 O        -1.8384554444       -4.3606855196       -6.4332560838
 C         0.4414674420       -4.9753412309       -7.0246562368
 C         1.1312854262       -3.6414660679       -7.5179037894
 O         0.5914103389       -3.0542964779       -8.4774970894
 C         2.5379978005       -3.2205705630       -7.0851584116
 C         2.5694695344       -1.6819441502       -7.1047649530
 C         2.6301465353       -0.9767019770       -5.6945709642
 O         2.8417566341       -1.7027509453       -4.7160119131
 C         2.3823738962        0.5847658598       -5.7523066840
 C         0.7484661083        0.7902301145       -6.0410845144
 O         0.3779455394        1.2740464430       -7.0936391776
 C        -0.0889512413        0.2810234609       -4.8777320150
 C        -1.5552418258        0.7607796752       -4.8988315356
 C        -2.5337003980       -0.2003328338       -5.4678946226
 O        -2.2464624089       -1.2102396753       -6.0876266736
 C        -3.9962667389        0.2278232298       -5.1157728460
 C        -4.9768462993       -0.0060267564       -6.3439178200
 O        -5.4336345239       -1.1128410704       -6.4712667299
 C        -5.2673627704        1.1162177947       -7.3375667989
 C        -6.4992746666        0.6904736184       -8.2272655338
 C        -7.6936334440        0.3125890965       -7.3739072415
 O        -7.9570118804        0.9098376152       -6.3754165950
 C        -8.7543839936       -0.7196046882       -8.1032658913
 C        -8.0764571760       -2.1209330996       -8.0458845653
 O        -7.4881680616       -2.5498209873       -9.0048188497
 C        -8.1171420076       -2.9526771491       -6.8129747313
 C        -7.6118874700       -4.4043674273       -6.9607208406
 C        -6.7630046785       -4.7898413211       -5.7492309118
 O        -5.7182027922       -4.2211823281       -5.4629425522
 C        -7.2633592889       -5.9452601176       -4.7694347553
 C        -8.6387123140       -5.4845310117       -4.1803853161
 O        -9.7132720307       -5.7764371559       -4.7120313349
 C        -8.6558636272       -4.8190301092       -2.8352931959
 C       -10.0010392567       -4.3710470550       -2.2524994356
 C       -10.6231938350       -3.2158911429       -3.1255943686
 O       -10.0101454936       -2.5388513462       -3.9032738822
 C       -12.1532898857       -2.9193811755       -2.7399202741
 C       -12.0125134276       -2.2753738638       -1.3107445349
 O       -11.9368520779       -2.9900785134       -0.3210136529
 C       -12.0759930658       -0.7517370465       -1.1395576661
 C       -11.0214147141       -0.2756660260       -0.1608325756
 C        -9.6152597062       -0.5364937503       -0.6092881308
 O        -9.1838481070       -1.6535266969       -0.9005715369
 C        -8.6356178372        0.7379510587       -0.9702517495
 C        -8.1291742499        0.7217777193       -2.3860655927
 O        -6.9453137182        0.8619410856       -2.6239653825
 C        -9.1692279299        0.5451221549       -3.5382680818
 C        -9.4526534136        2.0300963603       -0.8786075257
 C        -7.5425970729        0.6376977311        0.1493488104
 C       -12.8565586319       -2.0264821772       -3.8709795229
 C       -12.9696497814       -4.2999773386       -2.5631360305
 C        -7.5276112696       -7.3498066212       -5.4721155947
 C        -6.1795912240       -6.1809954200       -3.7114804819
 C       -10.1718070086       -0.6557297135       -7.4893107686
 C        -8.9358374893       -0.3291171303       -9.6459391333
 C        -4.5099107112       -0.6609684213       -3.9700213698
 C        -4.1812033375        1.7549375648       -4.7514888821
 C         2.8294420598        1.2435144978       -4.4644408610
 C         3.1357247047        1.1506871948       -7.0039074215
 C         0.6198771518       -5.2539285179       -5.5472440998
 C         1.1310620463       -6.1518432150       -7.8381598881
 C        -2.7681005743       -1.6859099172      -10.7331375840
 C        -4.9697511505       -2.8898906796      -10.8818227554
 C        -2.5850519605       -6.1050042332      -17.3392733637
 C        -0.4498339847       -5.0237293351      -16.3880441753
 C        -3.8407758841        0.7550470247      -20.6335015429
 C        -1.7330761521        0.5442760070      -22.0561735856
 C         1.7869805778        5.4407231170      -18.2423634274
 C         2.9210584580        4.8233112352      -20.2679614804
 C         2.7834606584       -1.9398574849      -16.8981753692
 C         5.1545562896       -1.7860806926      -17.2768778780
 H         5.3425194452       -3.2734707099      -19.8421602585
 H         5.7957064796       -1.7453551403      -19.5522981974
 H         4.8464722248       -2.1597412162      -21.1084661868
 H         5.4839323794        0.8882450181      -18.1908150449
 H         4.4734905179        1.3937491968      -16.9549014860
 H         4.1452705175        2.2717645417      -19.9248356615
 H         4.8620080760        3.1304346817      -18.6348618110
 H        -0.6601357934        4.1775717042      -18.2019407438
 H         0.2612014570        2.7107936332      -18.0518184344
 H        -1.7328230118        3.1491484187      -20.3801694161
 H        -2.4016969344        2.9824120734      -18.8155319153
 H        -3.9931737596       -2.2485051990      -20.1907037321
 H        -3.5489628579       -1.6214414330      -18.5695115021
 H        -1.5319807923       -3.7585238056      -19.9241262149
 H        -3.0961101578       -4.4653843273      -19.4512870649
 H        -1.1030610319       -4.2406527689      -14.0639722517
 H        -2.2209901980       -5.4524604546      -14.1081695847
 H        -4.0976770171       -4.3540947580      -13.1562655674
 H        -3.2895180137       -2.7823320676      -13.4564592924
 H        -3.5656994437       -5.6758156519       -9.5911596216
 H        -3.5859659159       -5.3218671494       -7.8749108573
 H        -1.0437130726       -4.6119345094       -9.4501242959
 H        -1.0753755905       -6.1143756179       -8.7177341148
 H         3.2142609083       -3.6750062735       -7.8478179631
 H         2.7525499190       -3.7319607604       -6.1345554680
 H         1.7299645440       -1.2889863656       -7.7424389805
 H         3.5085325042       -1.3144668317       -7.6039381250
 H         0.3282774554        0.5724465297       -3.9330455094
 H        -0.0220450556       -0.8467970467       -4.8022698538
 H        -1.4403877666        1.6575126627       -5.6196014089
 H        -1.8304322810        1.1606257311       -3.9244852809
 H        -4.3877977392        1.2076982678       -7.9966849844
 H        -5.4872659337        2.0272254914       -6.9173728470
 H        -6.1552695737       -0.1273866074       -8.8238365266
 H        -6.6855392050        1.6605287504       -8.7898323812
 H        -9.1749079675       -2.9458462058       -6.5118223656
 H        -7.5617088332       -2.4852870259       -5.9163961036
 H        -7.0253670148       -4.4563590080       -7.9032288555
 H        -8.4803478028       -5.0517069274       -7.2183965186
 H        -7.9430312278       -4.0018950454       -2.9018598177
 H        -8.0439460403       -5.3429171274       -2.0756147782
 H        -9.8418135318       -4.0080641238       -1.2366757145
 H       -10.6760931630       -5.2270562001       -2.0743373177
 H       -13.0006536435       -0.4800162962       -0.6890869953
 H       -11.7975155813       -0.2426780892       -2.0593693169
 H       -11.0885782873       -0.8296307680        0.8274111754
 H       -11.1349680957        0.7890320205        0.0191663925
 H        -8.6582921558        0.5818009016       -4.4925999586
 H        -9.8391828542        1.3871124211       -3.5828731581
 H        -9.5631772752       -0.4951878708       -3.6091307499
 H        -8.7314077632        2.7666500095       -1.3029633501
 H        -9.7841661521        2.3850030482        0.1477583565
 H       -10.3937099312        2.0004818455       -1.5062639114
 H        -7.8298344927        0.8183106928        1.1894225526
 H        -6.6260845476        1.2750520917       -0.0482249004
 H        -7.2961244096       -0.4332550522        0.2299683360
 H       -12.9088388579       -2.5357044820       -4.8034757952
 H       -12.0158649381       -1.3397941420       -4.1978826413
 H       -13.8170523711       -1.5304183912       -3.5335911161
 H       -13.9869917043       -4.0334107328       -2.2590833705
 H       -12.4401182564       -4.9067222242       -1.8666671203
 H       -12.9535759592       -4.7998275111       -3.4855813012
 H        -8.2950849037       -7.1575667314       -6.1466044689
 H        -7.9595996490       -8.2189309201       -4.8668777000
 H        -6.6155231512       -7.6591215598       -5.9518334654
 H        -5.3334887011       -6.6049658213       -4.1883754676
 H        -6.5742208705       -6.8089997857       -2.8611309349
 H        -5.8097679224       -5.2616924672       -3.2530106254
 H       -10.7456626664       -1.6249206808       -7.6284017201
 H       -10.7316549947        0.1139737373       -8.0016584313
 H       -10.2715947797       -0.1993426625       -6.4420980837
 H        -8.0054009721       -0.4390851902      -10.2396246241
 H        -9.1670643527        0.6904324544       -9.5853890328
 H        -9.7016094156       -0.9120909168      -10.1943214544
 H        -5.5603327166       -0.1819359123       -3.7200088461
 H        -3.7051303676       -0.6452308265       -3.2046671235
 H        -4.4835327925       -1.7006607364       -4.3861690070
 H        -3.5274765351        1.9720703407       -3.9219536137
 H        -5.1426336170        1.9941121072       -4.3921986335
 H        -3.9913740169        2.4270878244       -5.6249418654
 H         3.8273706285        1.5774830576       -4.6552255176
 H         2.8507489898        0.4403901501       -3.6945943123
 H         2.1736559748        2.1594361452       -4.2832620772
 H         2.5334931544        1.1059185521       -7.8540022876
 H         4.1291215717        0.6426316599       -7.2259252663
 H         3.4069177711        2.1989673043       -6.7135460673
 H         1.2884865106       -4.5976670494       -5.1131780147
 H         0.8776748746       -6.2861625014       -5.3548270484
 H        -0.3681536650       -5.1957017816       -5.0394407856
 H         1.2285289884       -5.9933687337       -8.9082353219
 H         0.4716697094       -7.0429573291       -7.7197889707
 H         2.1222964576       -6.3285997012       -7.4889598035
 H        -2.7545684100       -1.2688714661      -11.7804728893
 H        -1.7694868270       -1.7037770159      -10.3586802432
 H        -3.4151398960       -0.9896324800      -10.1357644477
 H        -5.2809958589       -2.8859862787      -11.9209659653
 H        -5.2820885699       -1.9757189772      -10.3063544780
 H        -5.6147188575       -3.6355003649      -10.3909857951
 H        -3.6637836936       -6.0361237625      -17.3337123327
 H        -2.4284343926       -6.8986479092      -16.5069403739
 H        -2.2473298688       -6.4596047049      -18.3447877279
 H         0.1110029284       -5.5308786930      -17.1890591470
 H        -0.3852634321       -5.8306222022      -15.6206851763
 H         0.1638791032       -4.1602653614      -16.0944419989
 H        -4.3790171466        0.4811350068      -21.5754209370
 H        -4.0066400973        1.9162321988      -20.6107632696
 H        -4.3704369703        0.4401482534      -19.7695855401
 H        -1.8335138094        1.5922356447      -22.3478786884
 H        -2.3940061752       -0.0698000420      -22.7565936590
 H        -0.7797281560        0.2460973064      -22.0060522542
 H         1.2114663352        5.1663564759      -17.3824862906
 H         1.3474077417        6.3173322020      -18.6820162942
 H         2.7945217945        5.8697524655      -17.8569530469
 H         2.6775831444        5.8566338715      -20.4035504291
 H         2.6319234780        4.2830312477      -21.1899938737
 H         3.9242730191        4.8134658331      -20.0023135816
 H         2.5588787944       -1.2377431121      -16.1863504154
 H         3.1370798517       -2.8119123446      -16.3078941190
 H         1.7781663502       -2.3040445331      -17.2186196997
 H         6.0271687975       -1.2587952903      -17.6754529043
 H         5.3846308575       -2.8436222265      -17.2220394040
 H         5.2111183683       -1.5906085719      -16.2487166957
 Na        0.4318623629       -1.4496751404      -18.8832746185
 Na       -3.8439080300       -3.0970507331       -6.2830484082
