232

 C         4.8342735217       -2.4357721252      -19.8275882560
 C         3.5847534266       -1.8763464982      -19.0539592287
 O         2.5305197965       -2.0558079155      -19.5575016643
 C         3.6676852049       -1.2096367215      -17.6341828928
 C         3.2301307026        0.2096608172      -17.9012604159
 O         2.0080411734        0.4479667751      -18.0556697165
 C         4.2314178570        1.3894977588      -18.1107511126
 C         3.6946978443        2.6901661213      -18.8219840453
 C         2.4742491606        3.4483012550      -18.2892028681
 O         1.8809120299        3.2431218311      -17.2512526213
 C         1.6918497018        4.5073922964      -19.1965079663
 C         0.4959830813        3.7900966104      -19.7430158826
 O         0.3023421494        3.4549010899      -20.8661107470
 C        -0.6990177668        3.5217124288      -18.7784955708
 C        -1.7932721248        2.7222224306      -19.4246881005
 C        -1.6477473501        1.2167161278      -19.3498329188
 O        -1.0560714083        0.5375169320      -18.5654114292
 C        -2.5427546005        0.3712516494      -20.5018136521
 C        -2.1359650198       -1.1946605616      -20.1427495281
 O        -1.1833241941       -1.7547294932      -20.5825049485
 C        -3.2143010912       -1.8736873570      -19.3967332221
 C        -2.8695479782       -3.2303696707      -18.7988054953
 C        -1.5810075864       -3.4813909645      -17.9351782564
 O        -0.4961516153       -2.9129198574      -17.9716665613
 C        -1.7534155206       -4.7664817929      -16.9166768785
 C        -2.6228616356       -4.1929480143      -15.6213538453
 O        -3.4357981501       -3.3292747904      -15.8603926393
 C        -2.5255612086       -4.8739419996      -14.3397289479
 C        -3.4911335717       -4.4107370377      -13.2443487529
 C        -2.9703419436       -4.2355343903      -11.8141763757
 O        -1.8060026613       -4.5389745532      -11.4546509547
 C        -3.7283277402       -3.2906785649      -10.8072310635
 C        -3.3632002557       -3.6612789223       -9.2986611271
 O        -3.3852327362       -2.6916149107       -8.4868223425
 C        -3.1510066133       -5.0494482805       -8.8888670461
 C        -1.7014928350       -5.5034145520       -8.4481783023
 C        -1.0817071089       -4.7910019752       -7.2723788056
 O        -1.7585905731       -4.2903925629       -6.3433261799
 C         0.5014854157       -4.7953200433       -6.9605675168
 C         1.1987371496       -3.5125860880       -7.5728801239
 O         0.5891082402       -2.5901031457       -8.0056111474
 C         2.7650873153       -3.3087230127       -7.5118731637
 C         3.1049425819       -1.7816299394       -7.4917507717
 C         2.8659467742       -1.2307015190       -6.1376608333
 O         2.6696310139       -2.0097166401       -5.2123771442
 C         2.7798345952        0.3166320869       -5.8730442161
 C         1.2353320446        0.7291834927       -6.1655003164
 O         0.9070596364        1.4414291744       -7.1069337261
 C         0.0761324073       -0.0049186036       -5.4000470519
 C        -1.3627113891        0.7086410667       -5.3566733556
 C        -2.5191838640       -0.2156993899       -5.0578199497
 O        -2.3728834930       -1.4117398734       -5.1922516536
 C        -3.9568502041        0.4021589693       -4.8146173866
 C        -4.8803763163       -0.0066163176       -6.0227793172
 O        -4.8516703058       -1.1249987806       -6.5256421371
 C        -5.6953162936        0.9940469914       -6.7515081169
 C        -6.4029760303        0.3721894684       -7.9798304824
 C        -7.8911410659       -0.0178148421       -7.7381726524
 O        -8.3838426601        0.2572571741       -6.6541862475
 C        -8.7701859397       -0.9609991693       -8.7284152429
 C        -8.1280266642       -2.3459275237       -8.5071247409
 O        -8.0664749127       -3.1725458043       -9.4181690480
 C        -7.5762419642       -2.7549427629       -7.0850778984
 C        -7.8169708113       -4.1902763799       -6.6809947728
 C        -6.8022827947       -4.6647394357       -5.6737589114
 O        -5.6667254523       -4.2010784129       -5.4973551114
 C        -7.2385834231       -5.8572977052       -4.7461161547
 C        -8.5279586568       -5.4079405930       -3.9777594432
 O        -9.5521257074       -5.9748566987       -4.1883555767
 C        -8.3326589155       -4.2719729961       -3.0301354206
 C        -9.5849774136       -3.8527711445       -2.3153342230
 C       -10.5710782070       -3.1829906745       -3.2799337819
 O       -10.2743017100       -3.0089638735       -4.4862803343
 C       -12.0687708878       -2.8066492198       -2.8400363701
 C       -12.0659519114       -2.3731825961       -1.3508934568
 O       -12.3166679664       -3.0908802103       -0.4233690588
 C       -11.7464374339       -0.8850900427       -0.9282231659
 C       -10.6872050646       -0.6763686980        0.1674455324
 C        -9.1589247282       -0.4735329629       -0.4169273547
 O        -8.4385228807       -1.4507474494       -0.3996463728
 C        -8.5782930189        0.9029247513       -0.8110086751
 C        -8.2107122578        0.8349477924       -2.3612357446
 O        -7.3679842177        1.5958113892       -2.7714522135
 C        -9.0812874679       -0.1212129488       -3.2542051697
 C        -9.4504349506        2.1789753947       -0.5888443380
 C        -7.2450131712        1.1323686677       -0.1252783393
 C       -12.5538995556       -1.7253752188       -3.7718743759
 C       -12.8356217009       -4.1677783822       -3.0232333877
 C        -7.7691081370       -6.9690036684       -5.6403385936
 C        -6.0804773470       -6.2899042142       -3.7918660875
 C       -10.1762958873       -0.9688493724       -8.0997951993
 C        -8.8528819377       -0.6626148155      -10.2490563064
 C        -4.5708484848       -0.3914524736       -3.5817744319
 C        -3.7795537139        1.9263838248       -4.4380502448
 C         3.0477484694        0.5923136676       -4.2598201916
 C         3.6418454159        1.1214590106       -6.8130235740
 C         0.7043879429       -4.7246511789       -5.4436333352
 C         1.0738774343       -6.0336813364       -7.6357824697
 C        -3.0043712713       -1.9165719277      -11.1658565691
 C        -5.2804371512       -3.2129014602      -11.0016476200
 C        -2.5209783108       -5.9867018053      -17.5217625444
 C        -0.2856092897       -5.1257723709      -16.5131158160
 C        -4.0676449130        0.7232770470      -20.3600274918
 C        -2.2297531240        0.6081171311      -22.0406050827
 C         1.2824192908        5.7439396750      -18.3681227045
 C         2.6813058535        4.9497725511      -20.3566852821
 C         2.6432010198       -1.7464758136      -16.5168944625
 C         5.0629972493       -1.3016694253      -17.1532064830
 H         5.6015206342       -1.6505656669      -19.9894614262
 H         4.4743219433       -2.6431026335      -20.8068351352
 H         5.2183693679       -3.2331590675      -19.2399026363
 H         5.0156818638        1.0460287763      -18.7390727169
 H         4.7051824447        1.5571374633      -17.1186290389
 H         3.3476323348        2.4223805067      -19.7541726714
 H         4.4731090171        3.4152767583      -19.1184231728
 H        -1.0360627971        4.5132116773      -18.4717821223
 H        -0.3463594859        2.9861255170      -17.9012707764
 H        -1.9606175026        3.0339042488      -20.4446603890
 H        -2.7754367067        2.9200821236      -18.9249171012
 H        -3.9883737966       -2.0034744669      -20.1315707967
 H        -3.4845694811       -1.0794018755      -18.6429439606
 H        -2.7764337441       -4.0666292450      -19.4806354189
 H        -3.6469443212       -3.6836533905      -18.0797008230
 H        -1.5234479114       -4.7347131672      -13.8442073898
 H        -2.5777580896       -6.0006690110      -14.3586815467
 H        -4.1484882733       -5.1994856024      -13.1747135071
 H        -3.8999295245       -3.4551104248      -13.5892153353
 H        -3.3773613003       -5.8077466721       -9.5962029777
 H        -3.8046079664       -5.3198693926       -8.0235232524
 H        -1.0155511217       -5.4791776384       -9.3133619530
 H        -1.7985485707       -6.5876954451       -8.1607330401
 H         3.1020898039       -3.6290184098       -8.5535728932
 H         3.1800240513       -3.8751859939       -6.7104935419
 H         2.5154454536       -1.2265146629       -8.2996855110
 H         4.1359725454       -1.5987055836       -7.8330436368
 H         0.2938662453       -0.3449555943       -4.3750435147
 H        -0.0811069775       -1.0173947279       -5.8036639393
 H        -1.5062740540        1.2690465355       -6.2713487206
 H        -1.2007632546        1.5305960806       -4.5082300581
 H        -4.9918513055        1.7414875094       -6.9922275995
 H        -6.4769356923        1.4241843673       -6.1284718607
 H        -5.7454700079       -0.5091996773       -8.2546237482
 H        -6.4759230739        1.0646796481       -8.8013557833
 H        -7.9283454660       -2.0761841997       -6.2023796825
 H        -6.4826861799       -2.5421018882       -7.0118002261
 H        -7.8896178146       -4.8611146997       -7.5772395518
 H        -8.7902230915       -4.1815100750       -6.1680966099
 H        -7.8792439552       -3.3552948941       -3.5413080089
 H        -7.5074982189       -4.4706319615       -2.3453941417
 H        -9.3888774983       -3.1381406143       -1.4891473041
 H       -10.0955409597       -4.6468265337       -1.8258323283
 H       -12.6630802396       -0.4527553777       -0.4908787250
 H       -11.4738595539       -0.2984847918       -1.8052772594
 H       -10.7436742064       -1.5980559973        0.7457368516
 H       -10.9303847274        0.1920992736        0.8608620308
 H        -9.9856883828        0.4001035114       -3.6293890514
 H        -9.3672241758       -1.0552752163       -2.7055142676
 H        -8.6238078551       -0.4742760860       -4.1714735171
 H        -8.9895195479        3.0480333332       -1.1417330459
 H        -9.5583343111        2.5650663572        0.4606093311
 H       -10.4218386918        1.9906031528       -1.1776790502
 H        -7.3553832629        0.7896854902        0.9374993572
 H        -6.8150250786        2.1662358998       -0.1765624997
 H        -6.4227968985        0.5508582866       -0.5855706247
 H       -12.7931182149       -2.3505313073       -4.7374304502
 H       -11.9454195389       -0.8096948370       -3.9493737341
 H       -13.5425102220       -1.3569146909       -3.3976331852
 H       -13.8325533993       -3.8696332109       -3.1466888040
 H       -12.6960113890       -4.6620535201       -2.0637220711
 H       -12.5225354540       -4.8980255571       -3.7569423932
 H        -8.5771704311       -6.6084864307       -6.3399613795
 H        -8.0335774858       -7.7295321706       -5.0096502566
 H        -6.9496484116       -7.2936282876       -6.3189731614
 H        -5.2331541949       -6.8171435000       -4.3254519876
 H        -6.4244415122       -6.9932076281       -3.0902145302
 H        -5.6143918797       -5.4316272996       -3.3118171794
 H       -10.9655891778       -1.3056291960       -8.8052284572
 H       -10.5908068869        0.0668463555       -7.8508798375
 H       -10.2502499436       -1.6212465008       -7.2407258760
 H        -7.9524880854       -0.8371708129      -10.8128478516
 H        -9.0813832328        0.4386622556      -10.3515282201
 H        -9.5741196840       -1.3532434266      -10.5735646857
 H        -5.6262404652       -0.3014075116       -3.7617162828
 H        -4.1189914951        0.1892271193       -2.6959643194
 H        -4.2953025221       -1.5190035854       -3.6741315686
 H        -2.8834757286        1.9871211791       -3.8078039255
 H        -4.6460486346        2.3537695551       -3.9127906298
 H        -3.5999197459        2.4647505155       -5.3007263912
 H         4.0919208119        0.1797225133       -4.0434697106
 H         2.4184193220       -0.1970037133       -3.8199395161
 H         2.9111470528        1.6175237944       -3.9196232664
 H         3.5473562217        0.6185616903       -7.8548980037
 H         4.6667019571        1.1445581603       -6.4996665671
 H         3.2953883063        2.1574040891       -6.9239070876
 H         1.6339323101       -5.2840993902       -5.1282026426
 H        -0.1045852815       -5.1635291341       -4.8786314316
 H         0.9129377234       -3.7671708734       -5.0887971179
 H         1.2355537530       -5.8414224368       -8.7064924424
 H         0.5464738062       -6.9250753200       -7.4083215425
 H         2.0899393660       -6.2887285868       -7.2876888206
 H        -3.0268561849       -1.7544246620      -12.2015840290
 H        -1.9120282964       -1.8437005032      -10.9124511176
 H        -3.4682900099       -1.1462893608      -10.5723237309
 H        -5.6982934284       -2.2059846410      -11.1644295121
 H        -5.7461362225       -3.6905250096      -10.1523854282
 H        -5.5352696440       -3.8316704723      -11.8723419870
 H        -3.6336699414       -5.7359781833      -17.3087351960
 H        -2.3387956305       -6.9300330628      -16.9891768886
 H        -2.2791471185       -6.0395471904      -18.6152385710
 H         0.3326919292       -5.5299730826      -17.3441529761
 H        -0.1198980685       -5.9074019758      -15.7645121180
 H         0.1973638270       -4.2292539469      -16.0859106249
 H        -4.6614190010        0.2630434796      -21.2177952934
 H        -4.1550834435        1.7559644763      -20.5870929392
 H        -4.5088784758        0.2717570072      -19.3879725341
 H        -2.6948793962        1.5165851163      -22.2527130307
 H        -2.5470113863       -0.2137305141      -22.5684385767
 H        -1.0719592238        0.6812767934      -22.1957436943
 H         0.9537339190        5.4982563989      -17.3286726264
 H         0.5594761969        6.3822817317      -18.9200175079
 H         2.1115383108        6.3394400994      -18.1424292402
 H         2.4465244596        5.9639293962      -20.5597394687
 H         2.5951474137        4.3150097205      -21.1782802959
 H         3.7439898284        4.9370427394      -20.0165724752
 H         2.8754566557       -1.3630134630      -15.4689637641
 H         2.6516689718       -2.8066512707      -16.3811505473
 H         1.6450599027       -1.4364374113      -16.6479422891
 H         5.7946183396       -0.7439600483      -17.6876206226
 H         5.4475401282       -2.3195667906      -17.1273576675
 H         5.2013558784       -0.9499036905      -16.0824115837
 Na        0.3623098471       -1.1747684103      -19.2331656661
 Na       -3.6718644631       -3.2993086888       -6.0606121733
