232

 C         4.7431489570       -2.6126610808      -19.5588607355
 C         3.5326984851       -1.8789495806      -18.9664941889
 O         2.4316580533       -2.0631631386      -19.4209223056
 C         3.6216236375       -1.0399577687      -17.5882393911
 C         3.0260001906        0.3815535309      -17.8684068954
 O         1.8901356428        0.5074136707      -18.3381744919
 C         3.9212999464        1.6845381228      -17.8722050132
 C         3.4979947541        2.7390699284      -18.9692220609
 C         2.2654102331        3.5983086161      -18.3480246134
 O         1.9769108305        3.5728818308      -17.1545574431
 C         1.4569383059        4.5844785173      -19.2086666381
 C         0.3909644014        3.5751192551      -19.8095938331
 O         0.4750415234        2.9368681544      -20.8240559228
 C        -0.9196061029        3.6919578247      -18.9413308902
 C        -2.1300682841        2.8557492823      -19.4188535378
 C        -1.7468316986        1.3370045279      -19.4687968083
 O        -0.7598928003        0.9605411587      -18.9025892943
 C        -2.6717354895        0.4212078994      -20.3328811853
 C        -2.3799817371       -1.1249730978      -20.0480499668
 O        -1.8478267478       -1.8226970783      -20.8587034659
 C        -3.0262692446       -1.7217597022      -18.8322939797
 C        -2.8512720862       -3.1934288619      -18.8620908047
 C        -1.6154057097       -3.6702768266      -17.9356678485
 O        -0.6475835890       -2.9181161245      -17.7929315344
 C        -1.6995558504       -4.8278283145      -16.9274440447
 C        -2.6186487131       -4.2757988439      -15.5921304930
 O        -3.4305794553       -3.3826992021      -15.6873057023
 C        -2.3998667030       -5.0648094076      -14.3035618666
 C        -3.5214229032       -4.6543203763      -13.2508227603
 C        -2.9136300734       -4.4050436464      -11.8975320163
 O        -1.8775756287       -4.9828692363      -11.5571009268
 C        -3.6010260225       -3.4106263235      -10.8743913014
 C        -3.2030065823       -3.6334366001       -9.4551580081
 O        -3.3045997697       -2.6403900511       -8.6611382920
 C        -2.8549993058       -4.9682728997       -8.8883145180
 C        -1.3251836694       -5.0396148044       -8.7126582720
 C        -0.9527053733       -4.7901673659       -7.2512228041
 O        -1.7641224319       -4.3281982203       -6.4280532907
 C         0.5917314473       -4.8014915793       -6.9352380152
 C         1.0583871741       -3.4231598301       -7.5505319350
 O         0.2863112076       -2.5210801740       -7.6263222854
 C         2.5773023427       -3.2641691303       -8.0318874140
 C         3.1192327052       -1.9064259782       -7.6864944527
 C         2.7788305703       -1.5130283915       -6.1842914226
 O         2.4471273003       -2.3162867851       -5.3455568906
 C         2.7360730819        0.1252765732       -5.9225304513
 C         1.3090436111        0.6271177081       -6.1449797818
 O         1.0089225703        1.5774192593       -6.8801717182
 C         0.0618143223       -0.2236883593       -5.6018487372
 C        -1.3174673267        0.4704907875       -5.7897423926
 C        -2.4008695215       -0.2534556917       -5.0695088843
 O        -2.3177051097       -1.4142820248       -4.6944932500
 C        -3.8646424889        0.3771574465       -4.8639024126
 C        -4.8191054668       -0.0475532024       -6.0231267622
 O        -4.8073767991       -1.1470231776       -6.5867161403
 C        -5.8456238123        0.9821032501       -6.4660160632
 C        -6.5440314618        0.4645957283       -7.7245862759
 C        -7.9371190215       -0.0069828449       -7.5582484905
 O        -8.6649865904        0.4441759270       -6.6772907412
 C        -8.5338615398       -0.9609121823       -8.6493299238
 C        -8.0818826113       -2.5191300670       -8.4813997542
 O        -8.3667365442       -3.3380202479       -9.3484401374
 C        -7.3071609759       -2.9314751437       -7.2063162967
 C        -7.7485841705       -4.3700893384       -6.7286728203
 C        -6.8298625225       -4.8253167336       -5.6324875928
 O        -5.6689778438       -4.3671414286       -5.5259229519
 C        -7.2553293963       -5.9558270437       -4.7174345327
 C        -8.5240197078       -5.4989564730       -3.7966898433
 O        -9.5307170671       -6.1135600175       -3.6702154381
 C        -8.1737858203       -4.1662421076       -2.9989125445
 C        -9.4676492172       -3.6001591610       -2.4189791667
 C       -10.5266330371       -3.1246925675       -3.4199985051
 O       -10.1557650473       -3.0021990335       -4.6086675604
 C       -11.8950335601       -2.6615561729       -2.8780924645
 C       -11.7780755799       -2.3147275311       -1.3740980936
 O       -12.0131459069       -3.1138632625       -0.4879102372
 C       -11.5004968490       -0.8140273551       -0.9570649184
 C       -10.4123628987       -0.6931714243        0.1389214317
 C        -8.9876109344       -0.5223788173       -0.4489233540
 O        -8.1530173650       -1.4142933664       -0.4031054516
 C        -8.6187013772        0.8487215753       -0.8421198384
 C        -8.1797514565        0.9134549964       -2.3803204940
 O        -7.4696495955        1.7581390684       -2.8415232345
 C        -8.7854409840       -0.1149601451       -3.3776740873
 C        -9.7074693520        1.8972115124       -0.4987553059
 C        -7.4328245061        1.2521851635        0.0036113220
 C       -12.5375843367       -1.5919888081       -3.7281496157
 C       -12.8689869251       -3.9321768647       -2.9215987487
 C        -7.7553532164       -7.1703064961       -5.6212765558
 C        -6.1159214114       -6.4911404441       -3.7794493840
 C       -10.0835619076       -1.1357252114       -8.7509277647
 C        -8.1026104727       -0.4251114058      -10.0387741401
 C        -4.5011881283       -0.1291172231       -3.5613055557
 C        -3.7837059564        2.0456111773       -4.8190034723
 C         2.8774069208        0.3600004505       -4.3689607945
 C         3.7786052741        0.8344381419       -6.8707480447
 C         0.7946798730       -4.7488930468       -5.4010112982
 C         1.3405312524       -6.0000077996       -7.5369481539
 C        -3.4009845994       -1.8842722597      -11.3248636873
 C        -5.1482551703       -3.7021753030      -10.9668198665
 C        -2.3561488796       -6.1252751938      -17.4553404295
 C        -0.3420382966       -5.0511906711      -16.3329502943
 C        -4.1113006356        0.8460968590      -20.3146468183
 C        -1.9888545528        0.7578576126      -21.6841586448
 C         0.9997384988        5.8149057554      -18.2581094750
 C         2.2488689000        5.1410366926      -20.3847882898
 C         2.6702064116       -1.7835037256      -16.6094423108
 C         5.0063971992       -0.8318280684      -16.9422694723
 H         4.9821647771       -2.0549091919      -20.4901361576
 H         4.3726120032       -3.5990980885      -19.8358947599
 H         5.6004398506       -2.5562023145      -18.8822319059
 H         4.9907587284        1.4312070841      -18.0718752847
 H         3.7824449653        2.1818303521      -16.8734618857
 H         3.1214329092        2.3231645930      -19.9361085180
 H         4.3674375924        3.3526990358      -19.3171959161
 H        -1.1808246750        4.7445297595      -19.0476354337
 H        -0.6939824663        3.5483788993      -17.8764172159
 H        -2.5752167275        3.2715276767      -20.3263044633
 H        -2.9092651298        2.9617647467      -18.6864929530
 H        -4.0758554452       -1.5020406285      -18.8565352501
 H        -2.5116448432       -1.3245795902      -17.9285591601
 H        -2.5761160263       -3.6053528546      -19.8045821225
 H        -3.7291277108       -3.8419836637      -18.5361133511
 H        -1.4802271580       -4.7680962195      -13.7533403826
 H        -2.4184086120       -6.1098748744      -14.4001044875
 H        -4.2589250489       -5.4723967942      -13.2300350386
 H        -3.9755903415       -3.6857408203      -13.6629598590
 H        -3.1916066115       -5.8000274144       -9.4880238817
 H        -3.2136502050       -5.1383410181       -7.8414806046
 H        -0.9192213266       -4.1706538076       -9.2829235640
 H        -0.9209071552       -6.0291155995       -8.9834959618
 H         2.5081258437       -3.2693184331       -9.1280819622
 H         3.1477453084       -4.0435037094       -7.6527056699
 H         2.7856657865       -1.1269072174       -8.3828575186
 H         4.1551781364       -1.9347734618       -7.9113044054
 H         0.0592101766       -0.5740553460       -4.5920480576
 H         0.0240014697       -1.1984596417       -6.1322392233
 H        -1.5496011825        0.6033929329       -6.8142556479
 H        -1.1230457068        1.5564133456       -5.4333946954
 H        -5.2980662934        1.9241525306       -6.7693063328
 H        -6.4883484724        1.2571560984       -5.6310914736
 H        -5.9779284692       -0.3046476527       -8.2717369480
 H        -6.6138122543        1.3256291644       -8.4634986899
 H        -7.2925597161       -2.1770296786       -6.4473774599
 H        -6.2977563585       -2.9434379213       -7.4667442343
 H        -7.5342869878       -4.9592063518       -7.5966493555
 H        -8.7967149306       -4.4331206255       -6.4801485500
 H        -7.6026020665       -3.4319165004       -3.5710136236
 H        -7.6132492319       -4.3907333566       -2.0966351164
 H        -9.3387122472       -2.7060148762       -1.7221592341
 H        -9.8646888001       -4.4412579877       -1.7757505680
 H       -12.4093459782       -0.3654499814       -0.5986122823
 H       -11.1890535313       -0.0855116009       -1.7167866061
 H       -10.3831470506       -1.6150753538        0.7397941552
 H       -10.6227262094        0.0911945165        0.8617366231
 H        -8.1510380498       -0.0897314464       -4.2803174793
 H        -9.7344308841        0.2764117307       -3.8196496352
 H        -9.0146447024       -1.1249624801       -3.1400955431
 H        -9.3393859202        2.8248594198       -0.7791728933
 H        -9.9508244552        1.9216789340        0.5323907447
 H       -10.5934808972        1.7204475336       -1.0853757498
 H        -7.6372731375        1.7057575801        0.9286064347
 H        -6.7396562323        1.9299929191       -0.5700942813
 H        -6.8624086989        0.3342220866        0.1317171076
 H       -12.7130250863       -2.0234739495       -4.7097646360
 H       -12.1206102970       -0.6635196710       -3.6453709651
 H       -13.5414167041       -1.4156270529       -3.3865774813
 H       -13.8631328307       -3.9876914321       -2.3832835645
 H       -12.2030607251       -4.7570993296       -2.5150809282
 H       -12.9932662162       -4.1663502669       -4.0342168961
 H        -8.3295353181       -6.6549550948       -6.4115167282
 H        -8.2709765969       -7.8945828904       -5.0528496793
 H        -6.9028290168       -7.5799831149       -6.2135404131
 H        -5.2636301584       -6.8841723806       -4.3295341008
 H        -6.4795080894       -7.3600455545       -3.2302402756
 H        -5.7968184190       -5.7391399941       -3.0614247775
 H       -10.3884189677       -1.8440349964       -9.4849146186
 H       -10.5222621907       -0.2413448207       -9.1275110505
 H       -10.5665309877       -1.4702785862       -7.8869727393
 H        -6.9964904998       -0.2912096897      -10.1225547700
 H        -8.6327665568        0.5779751918      -10.1791801772
 H        -8.4929661448       -1.1466195120      -10.7252685578
 H        -5.2359836005        0.5233672778       -3.2681537806
 H        -3.6607259490       -0.0730476915       -2.8265620413
 H        -4.8891459533       -1.1219492681       -3.7826474242
 H        -3.2583643198        2.3479436705       -3.8597195592
 H        -4.7819722605        2.4763470337       -4.7969378600
 H        -3.1536868068        2.4138767153       -5.5755261259
 H         3.8575941177        0.2977585351       -3.9281032242
 H         2.2046744944       -0.3567629524       -3.9813753225
 H         2.4297770147        1.2507754697       -4.2320446749
 H         3.3703918946        1.2979015725       -7.7580021563
 H         4.5703379632        0.1575289947       -7.0447328371
 H         4.2113883184        1.6693711082       -6.3297667210
 H         1.8197513331       -5.0045965084       -5.0815431721
 H         0.2085148272       -5.5223893091       -4.8689266353
 H         0.6160969274       -3.7718517835       -4.9897624435
 H         0.8488373544       -6.2613541630       -8.4906037918
 H         1.2148912722       -6.9442882748       -6.9428528332
 H         2.4787201081       -5.9295289004       -7.6925562614
 H        -3.9598070675       -1.7665426175      -12.1842999594
 H        -2.3466750531       -1.5581696978      -11.5308840147
 H        -3.7366161897       -1.2176569210      -10.5143786125
 H        -5.5292799343       -3.4756424599       -9.9982110799
 H        -5.5064140103       -4.7245522843      -11.1710655488
 H        -5.5042955192       -3.0090439408      -11.7032201027
 H        -3.3663380223       -5.8693784315      -17.7612851623
 H        -2.2289508121       -6.8482309941      -16.6829112745
 H        -1.8390533879       -6.4998464227      -18.2837905975
 H         0.4708186426       -5.2115149100      -17.0228619807
 H        -0.3933786446       -5.8867321416      -15.6350079010
 H         0.0184146625       -4.2384226399      -15.7283471895
 H        -4.7146148159        0.0118700437      -20.5278154083
 H        -4.2076897834        1.6457151324      -20.9707715364
 H        -4.3685076092        1.1614104331      -19.2978355640
 H        -1.5746405448        1.7279163493      -21.6398959635
 H        -2.5745282643        0.4835711412      -22.5477117815
 H        -1.1033337056       -0.0162767541      -21.6654631526
 H         0.5139455718        5.5989043145      -17.2930296729
 H         0.3671021117        6.5029535259      -18.8058269373
 H         1.8222369611        6.3468822207      -18.0295217661
 H         1.6631398317        6.0301761959      -20.7470071902
 H         2.2612593999        4.4432425569      -21.2195643980
 H         3.3744644234        5.3167563323      -20.0753933716
 H         2.6136587811       -1.2007318647      -15.6689272998
 H         3.0200618662       -2.7890640319      -16.3162806457
 H         1.6358086107       -1.8369193529      -16.9066444405
 H         5.8435321312       -0.7009452911      -17.6206986084
 H         5.3508193408       -1.6797527752      -16.3753051236
 H         4.9548854197        0.0956149076      -16.3020912410
 Na        0.3080772814       -1.1694171513      -19.0589309730
 Na       -3.7545759558       -2.9565120053       -6.3508616541
