232

 C         4.9081401208       -2.5243463474      -19.2823346940
 C         3.5728840680       -1.8309842824      -18.8933296689
 O         2.4791637925       -2.1447506203      -19.3978963695
 C         3.5182877786       -0.9746722676      -17.6127802343
 C         2.8903916716        0.4569281756      -18.1031728025
 O         1.8206366102        0.3637433966      -18.6150494598
 C         3.7030847094        1.7417642852      -17.9769959400
 C         3.2707361459        2.7554452484      -18.9922600297
 C         2.2569039498        3.6966542300      -18.2080479843
 O         2.1287719739        3.7050759085      -17.0146157650
 C         1.3830018174        4.6681260934      -19.2271367428
 C         0.1793523291        3.7152376996      -19.6287706299
 O         0.3012076687        2.7955158956      -20.4345503570
 C        -1.1594716254        3.9073586441      -18.8190203171
 C        -2.2798588070        2.9105290515      -19.3496473546
 C        -1.7952497728        1.4775926832      -19.5959916767
 O        -0.8391101375        1.0450938359      -18.9475673125
 C        -2.6282228715        0.4317652717      -20.4970373232
 C        -2.4856858312       -1.0327665231      -20.0552235966
 O        -1.9671377845       -1.8570978780      -20.8331745299
 C        -3.0066697250       -1.5105815851      -18.6499036136
 C        -2.8952507809       -3.1284429117      -18.4733802260
 C        -1.6256151491       -3.5035001373      -17.6695546526
 O        -0.5740827884       -2.9000663771      -17.7388691944
 C        -1.5905070083       -4.8118105227      -16.7574846105
 C        -2.5651606005       -4.4073199702      -15.6645231533
 O        -3.4109208001       -3.4914121725      -15.8122853352
 C        -2.5351575103       -5.2278970429      -14.3922856874
 C        -3.4896847102       -4.6260251559      -13.2920117572
 C        -2.9173305038       -4.5162530386      -11.8808117043
 O        -1.8482262421       -4.9202008763      -11.5967401739
 C        -3.7773219901       -3.5565623732      -10.9661242317
 C        -3.2721637286       -3.5811236564       -9.4502308131
 O        -3.3545147579       -2.6258324514       -8.7789952161
 C        -2.8325319327       -4.9028163619       -8.9284233924
 C        -1.2759096897       -5.0242910906       -8.7043044383
 C        -0.8818607290       -4.8118205427       -7.1775168427
 O        -1.6591782139       -4.5293910391       -6.3345388827
 C         0.6051112503       -4.7806605441       -6.8373337220
 C         1.1565544406       -3.4187151701       -7.4653405487
 O         0.2954186666       -2.5673439684       -7.7369716225
 C         2.5424867296       -3.2322516246       -8.1313003539
 C         3.0894450336       -1.8428198245       -7.7733499330
 C         2.6993840248       -1.5258287906       -6.3607163455
 O         2.4255145855       -2.4303997118       -5.5751646495
 C         2.6422559713       -0.0290800649       -5.8702485771
 C         1.1411625686        0.4718251454       -6.1317086815
 O         1.0528563984        1.5053367144       -6.7861499937
 C         0.0036535049       -0.3293253434       -5.7322652404
 C        -1.4101830615        0.3315710956       -5.8865561769
 C        -2.5077760107       -0.3553531065       -5.1966056382
 O        -2.3924901939       -1.5504620390       -4.8660306948
 C        -3.8313758588        0.5864885030       -4.9343976920
 C        -4.9276648234        0.1702949397       -5.9759526801
 O        -4.8725108681       -0.9458203379       -6.4984222414
 C        -6.0807831504        1.1736362106       -6.3835991936
 C        -6.7272232088        0.7710158228       -7.7416042365
 C        -8.1517828242        0.0010277933       -7.6680142232
 O        -8.8649093677        0.1941548461       -6.7065593333
 C        -8.5193460562       -0.9157268366       -8.7917894620
 C        -8.0628498156       -2.4906432647       -8.4734051213
 O        -8.2881969570       -3.2752606854       -9.3414845954
 C        -7.2554823974       -2.9143209133       -7.2327845697
 C        -7.5637751132       -4.3101990911       -6.6832935477
 C        -6.5794938008       -4.9834268226       -5.6392868806
 O        -5.4341547570       -4.6409969113       -5.4934368353
 C        -7.2076016096       -6.0407099850       -4.7080069990
 C        -8.4232009638       -5.4678066916       -3.7462179520
 O        -9.3118845293       -6.2725032662       -3.5183959479
 C        -8.1679453223       -4.1483735311       -3.0919045284
 C        -9.5007653141       -3.7043367151       -2.4251346581
 C       -10.4919626163       -3.0816497474       -3.3863696207
 O       -10.1510219706       -2.8248229438       -4.4833788260
 C       -11.8917010980       -2.6769723227       -2.8838252611
 C       -11.6573341871       -2.2614022434       -1.3657863700
 O       -11.6672870268       -3.2228832832       -0.6180108460
 C       -11.3712712020       -0.8908444110       -0.9375524014
 C       -10.2482976737       -0.8807261459        0.1657783573
 C        -8.9531056734       -0.4646673847       -0.4005743967
 O        -8.1388665393       -1.3560443322       -0.6458994769
 C        -8.5996391594        0.9626528113       -0.7516353110
 C        -8.1021387727        0.9698474475       -2.3360992232
 O        -7.3793341817        1.8666760007       -2.7357503397
 C        -8.6139480828        0.0039098351       -3.3142836981
 C        -9.6980319285        1.9824709722       -0.8822283648
 C        -7.3347521424        1.4470582708        0.0038299112
 C       -12.4793571348       -1.5125875611       -3.7503475753
 C       -12.7559169912       -3.9340393099       -3.0184680989
 C        -7.8800444512       -7.2258324675       -5.4663558617
 C        -6.0432568955       -6.6262269250       -3.7858748677
 C       -10.0281489299       -0.8505845184       -8.9172332218
 C        -7.7243434753       -0.6025899384      -10.0957756225
 C        -4.3859385043        0.0351521964       -3.5449120709
 C        -3.5159058064        2.1048869711       -4.8161714051
 C         3.0542061746        0.1037466212       -4.3837358450
 C         3.6747487372        0.9222876257       -6.6833919572
 C         0.7672442662       -4.9658363536       -5.2484759539
 C         1.3736964384       -5.9714925508       -7.4755492260
 C        -3.5541524589       -2.2055035561      -11.6563545390
 C        -5.3173970431       -4.0581380284      -10.9670309668
 C        -2.3197519763       -6.0188368553      -17.4946316738
 C        -0.1527713054       -5.2734700420      -16.3554088417
 C        -4.2616990690        0.7160244890      -20.4446023929
 C        -2.0740304881        0.6884854514      -21.9220840428
 C         0.8296668235        5.9487422296      -18.4160483294
 C         2.2393378764        5.1117942287      -20.5135470245
 C         2.6593078314       -1.4538792846      -16.4689214908
 C         4.8806592900       -0.7718033795      -17.0461237710
 H         5.3664136031       -2.2384183280      -20.2101326599
 H         4.5886274880       -3.5767878029      -19.2172839589
 H         5.6704487297       -2.3428391632      -18.5157874722
 H         4.7679140088        1.5702901000      -18.0322116500
 H         3.3661659875        2.2467506513      -17.0604568400
 H         2.8112538494        2.4314638923      -19.9152863720
 H         4.1303182239        3.3138525616      -19.2722653287
 H        -1.5445905482        4.9333603283      -18.7092880427
 H        -0.8943131461        3.5943675203      -17.8153987974
 H        -2.8782067337        3.2275737529      -20.2031199598
 H        -2.9952419343        2.9145466003      -18.5073645571
 H        -4.1272312295       -1.3967380966      -18.7287504380
 H        -2.5415311773       -0.9776114539      -17.8175388566
 H        -2.8246304117       -3.5663328809      -19.5557675723
 H        -3.7147872938       -3.6460592217      -18.0471402778
 H        -1.5428789065       -5.3510960549      -13.9662156241
 H        -3.0061247127       -6.2432459307      -14.6322759915
 H        -4.4698349257       -5.1277437840      -13.3037686570
 H        -3.7628873575       -3.6804178684      -13.7250762290
 H        -3.1764621390       -5.6902117643       -9.6501393174
 H        -3.1914755068       -5.1050190095       -7.9207421932
 H        -0.8475839804       -4.1944722618       -9.2515445955
 H        -0.9513785490       -6.0455446117       -8.9444612779
 H         2.2581671983       -3.4429763885       -9.1549835118
 H         3.2275919740       -4.0698228400       -7.7049054097
 H         2.6345274222       -1.0122806906       -8.3147449815
 H         4.1939829983       -1.7100544539       -8.0164057230
 H         0.1254982206       -0.6026730457       -4.6329591542
 H         0.0865339943       -1.3258917422       -6.1872602947
 H        -1.6687535184        0.5770730844       -6.9863795681
 H        -1.1987993819        1.2671085292       -5.5381264265
 H        -5.7533891250        2.1756403996       -6.4853236098
 H        -6.7795925314        1.2319859567       -5.5535124045
 H        -6.1195170838        0.1669386525       -8.4302818145
 H        -6.8030448268        1.7243192177       -8.2435478121
 H        -7.2716271743       -2.1849722184       -6.3860116684
 H        -6.1260086626       -2.8510019474       -7.5071358699
 H        -7.5848770020       -4.9546736444       -7.5911589699
 H        -8.5647535503       -4.2690957155       -6.2259113648
 H        -7.8438232030       -3.3293680219       -3.7732933237
 H        -7.4918999184       -4.3480387662       -2.2222638182
 H        -9.3600107350       -3.0499484250       -1.6022475243
 H       -10.0285448888       -4.5949433331       -2.0884302368
 H       -12.3488320740       -0.4562868318       -0.6696708986
 H       -11.0939525676       -0.1631891747       -1.6939192593
 H       -10.1331867150       -1.9107305351        0.5492864577
 H       -10.4395584941       -0.2675265617        1.0725392918
 H        -8.1593632156       -0.9852756317       -3.3392350413
 H        -8.4329896953        0.3225015498       -4.3386545774
 H        -9.7254112397       -0.1529490966       -3.1836906561
 H        -9.1700842895        2.9948795431       -1.0166834270
 H       -10.2906425381        1.9735066102        0.1220144190
 H       -10.4885430335        1.8208731104       -1.6764923301
 H        -7.7002856795        1.8067579231        1.0396087172
 H        -6.9782183713        2.4038812866       -0.3910962406
 H        -6.4986445458        0.6890110520        0.1245029355
 H       -12.2574734440       -1.8762651348       -4.7334504311
 H       -11.8615742638       -0.5591555096       -3.4537660243
 H       -13.5370351807       -1.1582336391       -3.8456821721
 H       -13.6022545279       -3.9155327832       -2.3043653653
 H       -12.2710976292       -4.8458899585       -2.7518881746
 H       -13.1283612328       -3.9289757901       -4.0054185497
 H        -8.8845921520       -6.9416456898       -5.7186334480
 H        -7.8871379514       -8.0588900927       -4.6497211808
 H        -7.3503305197       -7.5462599552       -6.3481708030
 H        -5.1293571639       -6.8194738546       -4.3158463288
 H        -6.3210579347       -7.5538786669       -3.2446888092
 H        -5.8780270029       -5.9593960508       -2.9555246321
 H       -10.4774628985       -1.7624049938       -9.3301588506
 H       -10.4438978614       -0.0184275722       -9.4592578239
 H       -10.5218888338       -0.9307044087       -7.9042948251
 H        -6.7252737189       -0.8414247266       -9.7651023505
 H        -7.8348552688        0.3891963832      -10.3980792279
 H        -8.0510844505       -1.3060047913      -10.9136946005
 H        -5.3599310247        0.6547896445       -3.2858038898
 H        -3.6465648998        0.2223932169       -2.7414683366
 H        -4.5596740944       -0.9962449927       -3.8960049599
 H        -2.5763152984        2.2817442610       -4.4423301745
 H        -4.2240093306        2.4517191001       -4.1311811372
 H        -3.5249349564        2.6041393184       -5.8048926525
 H         4.0478140955       -0.2914410319       -4.5132472270
 H         2.4084816914       -0.4494787477       -3.6395463941
 H         3.1144456955        1.1723913071       -4.0736965250
 H         3.3919803993        1.0796522596       -7.6916238847
 H         4.7431558025        0.5472683027       -6.6060921785
 H         3.6142479609        1.9388495036       -6.2834221142
 H         1.4311136477       -4.3490915971       -4.7228929155
 H         1.1258950882       -5.9425613984       -4.9850171641
 H        -0.2195833487       -4.7790518044       -4.7555590861
 H         1.7176185579       -5.8429163702       -8.4951924355
 H         0.7200985783       -6.8825044956       -7.6171787610
 H         2.2022291360       -6.2373198595       -6.8501316440
 H        -4.1838234479       -1.9832682864      -12.5708953853
 H        -2.5384937663       -2.1063863849      -11.7823433160
 H        -3.8201022856       -1.4608160817      -10.9242285678
 H        -5.6786432205       -4.2592259069       -9.9939470643
 H        -5.3802917535       -5.0325213186      -11.4312604640
 H        -5.8611112816       -3.3886620631      -11.5685259966
 H        -2.7654830281       -5.6559488461      -18.4089904639
 H        -2.9043364076       -6.5151659278      -16.6862938788
 H        -1.5578202474       -6.8185809990      -17.7475209264
 H         0.4783013387       -5.1860278895      -17.2356080134
 H        -0.0395788331       -6.1674273750      -15.7461687844
 H         0.3598139050       -4.5122129509      -15.7509365144
 H        -4.5771053301       -0.1356660451      -21.0762417305
 H        -4.4741518634        1.8458155630      -20.6468722108
 H        -4.6536146992        0.5434606490      -19.4532209913
 H        -2.1236872534        1.7966508163      -22.1108377077
 H        -2.7985235551        0.1641008710      -22.6124358497
 H        -1.1422492989        0.3561665533      -22.0687257073
 H         0.3145245323        5.7048520108      -17.5136219530
 H         0.0653854981        6.5437271383      -18.9079748378
 H         1.7139948346        6.6388739404      -18.2200335251
 H         1.6709877691        5.0887098774      -21.4357911982
 H         3.1097879128        4.4460578341      -20.7210412996
 H         2.6536536185        6.0073009401      -20.2458305980
 H         2.3601437276       -0.6864539342      -15.7978247720
 H         3.1475151005       -2.2513369932      -15.9244144845
 H         1.6881147128       -1.8910492773      -16.8244681621
 H         5.5223238427       -0.1897902110      -17.7588533927
 H         5.4776311287       -1.6853450071      -16.8209008251
 H         4.7914326258       -0.1708657279      -16.1841990248
 Na        0.1521501141       -1.0292562458      -18.8530546974
 Na       -3.5849316699       -3.0995790620       -6.0409051504
