232

 C         4.6101845515       -2.4927407562      -19.1544829172
 C         3.3333529533       -1.9349695775      -18.5654649709
 O         2.2043073631       -2.3822455555      -18.9124254627
 C         3.4700946640       -0.7486264075      -17.5658699428
 C         2.9237418346        0.6639980818      -18.2436345988
 O         1.9027313610        0.6178198310      -18.8524845119
 C         3.6748561612        2.0410610421      -18.1502559198
 C         3.1620220426        3.1084442588      -19.1938362292
 C         2.0744183778        3.9687902735      -18.3605682800
 O         2.1043281547        4.1944830662      -17.1729544672
 C         1.0104675706        4.7339976660      -19.2164510254
 C        -0.0169018709        3.6575471530      -19.5222373450
 O         0.1683109994        2.9183127538      -20.4772845271
 C        -1.3778814683        3.7216244025      -18.6977685992
 C        -2.4863830211        3.0211344011      -19.5751582037
 C        -2.2280495172        1.4396849113      -19.4124662334
 O        -1.3584920209        0.9806423373      -18.6290221272
 C        -2.8122800453        0.5179751690      -20.4712871337
 C        -2.3458937526       -0.9244291192      -19.9309030831
 O        -1.4276748904       -1.5921697578      -20.4439210085
 C        -2.9255076293       -1.4290240710      -18.5907583504
 C        -2.7953512528       -3.0880110386      -18.5275286845
 C        -1.5101566846       -3.3657272578      -17.6062726832
 O        -0.4884909329       -2.6605622488      -17.5682432613
 C        -1.7338125367       -4.8369640699      -16.8210184361
 C        -2.6445624494       -4.5182004671      -15.5512047758
 O        -3.4218946933       -3.5440320267      -15.5409735298
 C        -2.6184317655       -5.4545083018      -14.3192334531
 C        -3.5893308270       -5.2177885544      -13.0971138162
 C        -3.0735866780       -4.5064963216      -11.8871443847
 O        -1.8946943410       -4.5160066308      -11.6841073532
 C        -4.0449422392       -3.8963650520      -10.8809218604
 C        -3.5402438995       -4.0276967365       -9.4243097583
 O        -3.6981051505       -3.0375893909       -8.7354904552
 C        -2.9950346153       -5.3577901848       -8.8705164297
 C        -1.3985096086       -5.2967361024       -8.6701097681
 C        -1.0169800901       -4.9691161507       -7.1915878524
 O        -1.7707539523       -4.6068385616       -6.3209974254
 C         0.5450834891       -5.0448121633       -7.0225639622
 C         1.1237944274       -3.6805533057       -7.6894159715
 O         0.3566069335       -2.7456199103       -7.9583717804
 C         2.5991278262       -3.4598166090       -8.0233704526
 C         2.9798701786       -1.9851807927       -7.7455277340
 C         2.7252320228       -1.5843068139       -6.2881222987
 O         2.6539571939       -2.4791929132       -5.4770093768
 C         2.6028881479        0.0778765375       -5.7857486972
 C         1.1616798179        0.5540328711       -6.1583268213
 O         0.9418443599        1.6002131013       -6.7768592125
 C         0.0204675846       -0.1552111595       -5.4199208672
 C        -1.3240490111        0.5270551239       -5.7272105363
 C        -2.5599768812       -0.2291908925       -5.3523663794
 O        -2.6322297018       -1.4971012679       -5.2588738103
 C        -3.8731625514        0.5662262379       -4.9713804043
 C        -4.9921692231        0.2463759246       -5.9513366159
 O        -5.1481420540       -0.8801810625       -6.5030759030
 C        -6.0147170439        1.2863436103       -6.3316142675
 C        -6.6806740125        0.9852378039       -7.6583879964
 C        -7.7566128864       -0.1354069146       -7.5669065307
 O        -8.4001513459       -0.2628292421       -6.5266552531
 C        -8.0679631402       -1.0539703784       -8.6850884010
 C        -7.8606469695       -2.5345725420       -8.2714925508
 O        -8.1320100998       -3.3919619173       -9.0775780935
 C        -7.5080578306       -2.7887351105       -6.8897720942
 C        -7.6033786570       -4.3118247343       -6.5961126596
 C        -6.4888973493       -4.9086505135       -5.7594535783
 O        -5.3767530590       -4.4393023579       -5.6514427986
 C        -6.9645763796       -6.1849247272       -4.8717950054
 C        -8.0726033853       -5.7139951761       -3.8188875418
 O        -8.9007478638       -6.4983298504       -3.5500486268
 C        -7.9028307566       -4.2259751088       -3.2444333874
 C        -9.1703294833       -3.6606522113       -2.5172517013
 C       -10.2075347723       -2.8791225168       -3.3953327878
 O        -9.9502639016       -2.5582705701       -4.5309357954
 C       -11.6789282419       -2.6083088520       -2.7183496052
 C       -11.5641980745       -2.3803946200       -1.2695191378
 O       -11.5438551273       -3.3189422564       -0.4605331502
 C       -11.5011986669       -0.9467992259       -0.7282921997
 C       -10.1892885909       -0.6815051410        0.1515021291
 C        -8.9568998565       -0.3374847594       -0.6191517990
 O        -8.0397271305       -1.0859574580       -0.9210127702
 C        -8.5785744865        1.1070830496       -1.0558951994
 C        -7.8162153310        1.1317020538       -2.4089892775
 O        -6.8420423056        1.8475840266       -2.5461362418
 C        -8.4367446124        0.2508835426       -3.5366189334
 C        -9.7383127570        2.0834408053       -1.1026198039
 C        -7.5384779192        1.5726971148        0.0566866790
 C       -12.2191789771       -1.3460814254       -3.4588325901
 C       -12.4013946096       -3.9268903204       -3.0186087137
 C        -7.5488274142       -7.3003217908       -5.8053112247
 C        -5.8025118229       -6.6729627114       -4.0258663513
 C        -9.5795599855       -1.0481620076       -9.0174166893
 C        -7.1214671021       -0.6350366011       -9.9128700192
 C        -4.2718898881        0.1922670269       -3.5175353316
 C        -3.6455726391        2.0793046429       -5.0143649136
 C         2.8912251425        0.1862261336       -4.2364989956
 C         3.6737070643        0.8269738509       -6.5943243478
 C         0.8950488961       -5.0537688112       -5.5250812132
 C         1.1265388149       -6.3772076774       -7.5792473300
 C        -4.0501824266       -2.3557035371      -11.2562105724
 C        -5.5136721068       -4.5012850471      -10.9158658922
 C        -2.2698408671       -5.8863897303      -17.7607858351
 C        -0.3384305655       -5.3354844232      -16.3238109379
 C        -4.3795994182        0.5376545652      -20.4594328830
 C        -2.0932196052        0.7574633919      -21.8623661009
 C         0.5320938850        5.9484700981      -18.3938997198
 C         1.6873237094        5.3148538872      -20.4573276158
 C         2.4006400453       -1.0656583539      -16.4427279955
 C         4.9250932318       -0.6328497297      -16.9452644559
 H         5.1432943593       -1.7116343812      -19.6123074869
 H         4.4380122959       -3.4391643646      -19.6574403904
 H         5.2969378494       -2.7931416103      -18.3361110286
 H         4.7653960595        1.8580444665      -18.2251630039
 H         3.3197918708        2.4017350137      -17.1598698823
 H         2.7032227534        2.5660074374      -20.0392561785
 H         3.8942420972        3.7732557890      -19.5384746711
 H        -1.4915701359        4.7642980757      -18.4183407949
 H        -1.2816706109        3.2179888278      -17.7466713295
 H        -2.3115800777        3.2410655225      -20.6116681762
 H        -3.5228006234        3.2003181302      -19.3370337778
 H        -4.0458037950       -1.3061678536      -18.5504097858
 H        -2.5214728866       -1.1522948883      -17.6375714586
 H        -2.6663298904       -3.5774891390      -19.5634748317
 H        -3.6074688466       -3.5901516741      -18.1223547116
 H        -1.5895158104       -5.5765936789      -13.9099642513
 H        -2.9300736377       -6.5121373310      -14.6635682267
 H        -4.0074055959       -6.2035623512      -12.8029319729
 H        -4.4779074232       -4.8791929252      -13.4958648025
 H        -3.1292662974       -6.2787241244       -9.5061483503
 H        -3.5193674321       -5.4421558661       -7.9170642664
 H        -0.9312977662       -4.5223380920       -9.2984827235
 H        -1.1274304289       -6.3556743670       -8.8125981047
 H         2.6948420558       -3.6159753572       -9.0859600435
 H         3.2354202674       -4.2869919532       -7.5373041067
 H         2.3970347219       -1.3930595884       -8.4309376936
 H         4.0613257391       -1.8037459330       -8.0195919716
 H         0.2248004190       -0.1411450980       -4.3128068864
 H        -0.1272595149       -1.1980801138       -5.6973515935
 H        -1.2482940269        0.7218407422       -6.8871467014
 H        -1.2064903409        1.4845978899       -5.4152592076
 H        -5.5587198880        2.2403809128       -6.3216052842
 H        -6.6699647776        1.2964590977       -5.4879675169
 H        -5.9481589319        0.7315675231       -8.3929517720
 H        -7.2938304494        1.7035122063       -8.2090071790
 H        -8.1963907430       -2.3350848780       -6.1938923543
 H        -6.4947159059       -2.3596448895       -6.5942713161
 H        -7.7305321473       -4.8268107078       -7.5402778276
 H        -8.4973388048       -4.5115601155       -6.0312134767
 H        -7.7661648172       -3.6301701386       -4.1334417729
 H        -7.1908856824       -4.2342214257       -2.4280804549
 H        -8.9295003785       -2.9127546631       -1.7407834703
 H        -9.6447423603       -4.5541569220       -2.0611791201
 H       -12.3089550943       -0.5965491049       -0.1038098971
 H       -11.5317081784       -0.2598382750       -1.5715526752
 H       -10.0502270656       -1.6142735283        0.7650511048
 H       -10.4709502649        0.0971234326        0.8945214407
 H        -9.1269464983        0.6261047458       -4.3238920248
 H        -8.9629805292       -0.6138165772       -3.1976238520
 H        -7.6674666903       -0.0211364664       -4.2518893801
 H        -9.3104854243        2.9182368480       -1.6048547219
 H       -10.1483835394        2.4039662982       -0.1308472746
 H       -10.5845338309        1.7320418265       -1.7508101396
 H        -7.8321525508        1.7011085626        1.1229925692
 H        -7.0960337205        2.5315684898       -0.2816562387
 H        -6.7964442204        0.7929933596       -0.0500512523
 H       -12.4693714445       -1.5099563518       -4.4499436689
 H       -11.3693206337       -0.6441494921       -3.7075936445
 H       -13.1359743843       -0.8394297907       -2.9776765109
 H       -13.5538783305       -3.7581622833       -3.0643280455
 H       -12.4200320764       -4.6557608638       -2.1887255773
 H       -12.1401493130       -4.3567403985       -4.0022063220
 H        -8.1780301945       -6.8624044887       -6.5585050519
 H        -8.2895920139       -8.0155478924       -5.2697138182
 H        -6.6442740949       -7.8378786810       -6.1244869407
 H        -5.1536308116       -7.1821547279       -4.6743121793
 H        -6.0930533682       -7.2913998638       -3.1397611212
 H        -5.1891909233       -5.8990493372       -3.6079764330
 H        -9.8624586969       -1.7832010699       -9.7385102638
 H        -9.8347475898       -0.1171798349       -9.3385502628
 H       -10.2700060841       -1.1739209211       -8.1854380805
 H        -6.1265062747       -0.4555441363       -9.4912316416
 H        -7.6340895508        0.1776341579      -10.3195381586
 H        -7.0142878438       -1.4481337334      -10.6991172147
 H        -5.0091459784        0.9559622025       -3.2005360627
 H        -3.3114092642        0.2578659043       -2.8643634357
 H        -4.5860342231       -0.8979706668       -3.5660003558
 H        -2.7627162209        2.2403503921       -4.4458456510
 H        -4.3915252663        2.5106036168       -4.4129678751
 H        -3.5867622431        2.6098007741       -6.0032807404
 H         3.9168914045       -0.0916569048       -4.0408601740
 H         2.2023496941       -0.4303977952       -3.6997631714
 H         2.7833038593        1.1472981328       -3.9400019676
 H         3.7128408972        0.3656775791       -7.4862641740
 H         4.7247091769        0.9830086285       -6.2317924543
 H         3.2138600856        1.7891328358       -6.8073924969
 H         0.3629049650       -4.4174839500       -4.9019632745
 H         1.9111452946       -4.7242030604       -5.3854230015
 H         0.8561639895       -6.0839962357       -5.0494318561
 H         0.6765410479       -6.8324176176       -8.4713560837
 H         1.0395569084       -7.2209395129       -6.7366012522
 H         2.2158082528       -6.0924948502       -7.7879153256
 H        -4.3424648043       -2.1464834355      -12.2735170727
 H        -3.1142076915       -1.9082586916      -11.0534284739
 H        -4.8371230500       -1.8955027012      -10.7045491313
 H        -6.1956653159       -3.7209657862      -10.9960703035
 H        -5.7636122288       -5.1611219124      -10.0763801153
 H        -5.5753295064       -5.0842498463      -11.7938976054
 H        -3.2632969467       -5.6394718501      -18.0343576157
 H        -2.3236250510       -6.7988962393      -17.0949304875
 H        -1.6269904672       -6.0146923915      -18.6354291423
 H         0.3587757233       -5.1036579025      -17.1139497360
 H        -0.2035197886       -6.3970609349      -16.0638355810
 H         0.0415137597       -4.7440587652      -15.4952393210
 H        -4.6441528205       -0.4016599872      -20.8997892320
 H        -4.6888518304        1.3741123001      -21.1517390470
 H        -4.6332566869        0.7899283567      -19.4777751491
 H        -2.4824189621        1.6154701597      -22.2998022685
 H        -2.3550434621       -0.0326062325      -22.5809787307
 H        -1.0186267698        0.9551566451      -21.6784526542
 H         0.1330816821        5.6671503382      -17.4335458769
 H        -0.2528828686        6.4503190321      -18.9184308022
 H         1.3172499346        6.6185144144      -18.2887912941
 H         1.7236401156        4.6504016399      -21.3601304459
 H         2.7727985674        5.5232240719      -20.2690565846
 H         1.1726971578        6.2663082947      -20.7345392910
 H         2.5506795350       -0.5292021393      -15.5689146822
 H         2.4613191150       -2.1427135664      -16.1536215079
 H         1.3422347338       -0.9440300275      -16.8450948560
 H         5.6324860091       -0.2093360515      -17.7201947575
 H         5.2547299547       -1.5065095947      -16.3419490974
 H         4.8001912435        0.1462847273      -16.2383317137
 Na        0.3211725995       -1.1462953506      -19.3187657987
 Na       -3.8242447514       -3.0964838209       -6.5886186064
