232

 C         4.6125633643       -2.4452965433      -19.0517811841
 C         3.3098781657       -1.8363796555      -18.5522376369
 O         2.2406049450       -2.3910058459      -18.8284757227
 C         3.2850818163       -0.5945226085      -17.6208470902
 C         2.8679495219        0.6637486689      -18.3350271161
 O         1.8132990854        0.6939079231      -18.9309642225
 C         3.6176532745        1.9633628298      -18.1178452380
 C         3.1158296720        3.1291048391      -19.1260030206
 C         2.1372134876        4.0720299362      -18.4046976006
 O         2.2670472319        4.0505617847      -17.1659400501
 C         1.0433999798        4.8520175204      -19.2434790471
 C        -0.0890373069        3.7755246230      -19.6861853900
 O         0.1396687711        2.9005295381      -20.4673035941
 C        -1.3863516387        3.6755005578      -18.8314709007
 C        -2.5886844875        2.9686346756      -19.4399408672
 C        -2.1842322746        1.4557803214      -19.4585591393
 O        -1.3661351276        1.1343038750      -18.6337487533
 C        -2.7953980434        0.4082760040      -20.3812419989
 C        -2.2747744247       -0.9907512221      -19.8679626860
 O        -1.3376910065       -1.4869180596      -20.4267382060
 C        -3.0280686684       -1.5194262066      -18.7168607786
 C        -2.7428140335       -3.0580519314      -18.4735918952
 C        -1.6180789440       -3.3983173152      -17.6131980877
 O        -0.6816927456       -2.6350334615      -17.5776447028
 C        -1.6560447380       -4.7103270666      -16.7004458471
 C        -2.6869979424       -4.5135809239      -15.4509593978
 O        -3.4767642669       -3.6241727692      -15.4759458423
 C        -2.5521475656       -5.5209130826      -14.3217626483
 C        -3.6022774784       -5.2580127153      -13.2394711646
 C        -3.0397717940       -4.6093240368      -11.9718504050
 O        -1.8394684648       -4.3232096537      -11.6465567910
 C        -4.1585169110       -4.0685657242      -10.9677313303
 C        -3.6459529728       -4.1770546159       -9.4843008288
 O        -3.7361433483       -3.1105664696       -8.7819893312
 C        -3.1092869862       -5.4585171603       -8.8280838477
 C        -1.5529045247       -5.4132439735       -8.7278699474
 C        -1.0386331580       -5.0182323252       -7.3285855584
 O        -1.8192914999       -4.5428863528       -6.5062972312
 C         0.5579960095       -5.1285856286       -7.0761993467
 C         1.0343289242       -3.7483312968       -7.7391077767
 O         0.2511604910       -2.8869947527       -8.0287645652
 C         2.5700698725       -3.4436106639       -7.9704659052
 C         2.9605942434       -1.9936493629       -7.6162369774
 C         2.7421037115       -1.6066902353       -6.1499776024
 O         2.7270919274       -2.3672665307       -5.2210623914
 C         2.6007774627       -0.0254244609       -5.8533596949
 C         1.1970759548        0.5850154897       -6.0685158608
 O         1.0627469841        1.5162897318       -6.8238343212
 C         0.0221625576       -0.1777660032       -5.4348875165
 C        -1.3195681671        0.5825757743       -5.6806635068
 C        -2.5175695147       -0.2181352378       -5.3472294145
 O        -2.5121802403       -1.4248550875       -5.3879837119
 C        -3.8762207630        0.5642436671       -4.9441436113
 C        -5.0349417900        0.1954079837       -5.9822916655
 O        -5.1733814066       -0.8755699479       -6.5390919956
 C        -6.0018979964        1.3661946976       -6.3930473776
 C        -6.7038832492        1.0981082612       -7.6174098493
 C        -7.6802046721       -0.0428981950       -7.4365927748
 O        -8.2509540910       -0.1723100879       -6.3617969653
 C        -7.9839796509       -1.0123433503       -8.7096646838
 C        -7.7846112982       -2.5807094137       -8.3129542681
 O        -7.9488737730       -3.4586420383       -9.1706829952
 C        -7.6689572358       -2.8962297955       -6.8199049033
 C        -7.6401293736       -4.3988186715       -6.6002834206
 C        -6.5414806423       -4.9582529962       -5.7381946445
 O        -5.4041563351       -4.4517596135       -5.6347381748
 C        -6.7967966045       -6.1914961439       -4.9424208825
 C        -8.0490591876       -5.6927463767       -3.9051555056
 O        -8.9202930109       -6.4475796873       -3.4987492403
 C        -7.9011221471       -4.2783767293       -3.3239560030
 C        -9.1384180561       -3.7750032388       -2.4741801533
 C       -10.0829231021       -2.9271458429       -3.3210023380
 O        -9.8497784357       -2.5412258142       -4.4862783084
 C       -11.4913728344       -2.5864097816       -2.8000628538
 C       -11.4440509090       -2.3391605892       -1.1530224161
 O       -11.4425186477       -3.2558827201       -0.3670996253
 C       -11.3667004280       -0.8562964509       -0.6525399069
 C       -10.0700242250       -0.5744422171        0.2173217688
 C        -8.9455898122       -0.3813028586       -0.6466043030
 O        -8.1298845614       -1.2293366715       -0.9644964256
 C        -8.5833718292        1.1717321109       -1.0704755223
 C        -7.8737680862        1.1258279684       -2.3610500284
 O        -6.8369947529        1.7091723475       -2.5268320292
 C        -8.4392505595        0.4053798708       -3.5396423479
 C        -9.8132920825        2.1942667909       -1.2173377527
 C        -7.5911848063        1.6501997488        0.0809351221
 C       -12.1716237553       -1.4359458519       -3.5591523227
 C       -12.3373934087       -3.8921113837       -3.0964979010
 C        -7.4000211219       -7.4012593728       -5.7172238695
 C        -5.6614776742       -6.7136452916       -4.1299242250
 C        -9.4392781042       -0.9423843446       -9.0996377275
 C        -7.1018820959       -0.8640895111      -10.0288366072
 C        -4.2665674144        0.1153424343       -3.5329269668
 C        -3.5693580545        2.1975284307       -4.9326948209
 C         2.8515653584        0.2294816689       -4.3288681688
 C         3.6207146472        0.7338442052       -6.6615078749
 C         0.8198586575       -5.0276835325       -5.5438159888
 C         1.2124514785       -6.3865279184       -7.6323111806
 C        -4.1868553680       -2.5773270050      -11.3842497431
 C        -5.6331256913       -4.5974114552      -10.9526855415
 C        -2.4092570475       -5.8831499322      -17.5309718290
 C        -0.3042140292       -5.2796865718      -16.2044385791
 C        -4.3172920470        0.3968058089      -20.4242651299
 C        -2.1182532411        0.8285349744      -21.7674058514
 C         0.3072598626        5.8406610358      -18.3692094365
 C         1.6520079549        5.4624148161      -20.5139885949
 C         2.3611038956       -0.8670156998      -16.3239394869
 C         4.7588561008       -0.5188296073      -17.1005423413
 H         5.3012675763       -1.6510874878      -19.2792368992
 H         4.3791121604       -3.1754419364      -19.8045234773
 H         5.1294905126       -3.0695949667      -18.3183094315
 H         4.7143472967        1.7641197177      -18.2547872214
 H         3.3348779436        2.1873951318      -17.1181361025
 H         2.6085511439        2.6045504428      -19.9561022450
 H         3.9004427017        3.7144493972      -19.4894002240
 H        -1.6382401921        4.7013765601      -18.6409375810
 H        -1.2191185009        3.2732276755      -17.8258300856
 H        -2.9451243504        3.4290456101      -20.3921216624
 H        -3.3752165451        2.9561410350      -18.6806567093
 H        -4.1195662979       -1.5550703949      -18.7604095783
 H        -2.7658067224       -1.0389771167      -17.7595466892
 H        -2.4973652848       -3.5008071846      -19.4575339733
 H        -3.6358248502       -3.6615513646      -18.1724179827
 H        -1.5679873574       -5.3745322306      -13.7695846492
 H        -2.5372230815       -6.5577419321      -14.5989167229
 H        -4.2736508927       -6.1036890062      -13.0757339668
 H        -4.3791727814       -4.6128079989      -13.6097834990
 H        -3.3577866952       -6.4462351604       -9.2797836991
 H        -3.5390059743       -5.3751627113       -7.8198565298
 H        -1.1336123458       -4.6188021303       -9.3645914526
 H        -1.2465753129       -6.4274193268       -8.9204682610
 H         2.8658779638       -3.6539781111       -9.0563185721
 H         3.2255298338       -4.1064656361       -7.3864774067
 H         2.5883920711       -1.2362281292       -8.3535195923
 H         4.0780148049       -1.9808921460       -7.7078943699
 H         0.0742363959       -0.2545992598       -4.3335134159
 H        -0.0467780228       -1.2117063673       -5.8290311479
 H        -1.3905036582        0.9154209488       -6.7083057620
 H        -1.0568028421        1.5599755637       -5.1924688178
 H        -5.3395729769        2.2515856819       -6.5609800210
 H        -6.6305831480        1.6665661504       -5.6135528286
 H        -6.0547499421        0.8174147646       -8.3808287363
 H        -7.3144428926        1.8755011004       -8.0850647061
 H        -8.5182065812       -2.5019620900       -6.2279751391
 H        -6.7388268734       -2.4509596032       -6.3336638863
 H        -7.5314870682       -4.8057608108       -7.6172250843
 H        -8.6193637549       -4.8390944389       -6.2368805651
 H        -7.7505049333       -3.5876667566       -4.1474978064
 H        -7.1839569059       -4.4243461139       -2.4859186005
 H        -8.8602135872       -3.0657819029       -1.7358502591
 H        -9.6291470206       -4.6389068010       -2.0232868375
 H       -12.1144120284       -0.6709802830        0.1332893776
 H       -11.5822613114       -0.1091521478       -1.4630081184
 H        -9.9759700602       -1.4993836475        0.8530301837
 H       -10.3016195666        0.2399114507        0.8807879256
 H        -8.2773246023        0.8889045964       -4.5228670400
 H        -9.5333959588        0.2041460515       -3.5080894419
 H        -7.8906588784       -0.4798132215       -3.8341696380
 H        -9.4729499655        3.2350170200       -1.5165289256
 H       -10.4852708611        2.2250254613       -0.2936721609
 H       -10.4746432849        1.7928291742       -2.0912245343
 H        -8.0055958435        1.8880527453        1.0693484258
 H        -6.9202097873        2.5434915089       -0.2672641975
 H        -6.9521297849        0.7395384592        0.1762926087
 H       -12.4883435564       -1.7504135019       -4.5992060780
 H       -11.4677015921       -0.7235449540       -3.9622554398
 H       -13.0799596965       -0.9838788134       -3.0717980917
 H       -13.3947202202       -3.8350653458       -2.8816062666
 H       -12.0697921848       -4.5593857926       -2.2780533078
 H       -12.2365067780       -4.3968913959       -4.0693736300
 H        -8.2376095999       -7.0383065409       -6.3346355502
 H        -7.9451176125       -7.9614054370       -5.0212163654
 H        -6.5804469373       -8.0309515641       -6.1553001367
 H        -4.9053123029       -7.0231552691       -4.8077750588
 H        -6.0430044975       -7.5522040899       -3.5426651749
 H        -5.1245437580       -6.0904523706       -3.4336910622
 H        -9.6376381429       -1.7159822278       -9.8493393231
 H        -9.8071288271        0.0363552081       -9.4394483490
 H       -10.1440761943       -1.0931350158       -8.3103053197
 H        -6.0792833139       -1.1249220355       -9.7226432026
 H        -7.2776468297        0.1698480341      -10.3640213849
 H        -7.4424152655       -1.5395255104      -10.7487295647
 H        -4.9667278592        0.8505532428       -3.1638098232
 H        -3.2704810326        0.0660509541       -2.9484142193
 H        -4.6155934007       -0.9606333600       -3.6588762215
 H        -2.6859714813        2.4563316136       -4.3074074126
 H        -4.3914659287        2.7358714714       -4.5192109738
 H        -3.4848430330        2.5438315012       -5.9054010145
 H         3.9307245406        0.0829331717       -4.0151652707
 H         2.1918998804       -0.5051740538       -3.8606665495
 H         2.5913300212        1.2630466732       -4.0312349647
 H         3.5385454491        0.5211036022       -7.7540134728
 H         4.6572351314        0.6334478162       -6.3938567532
 H         3.2814438132        1.7666020408       -6.4619770482
 H        -0.0341030327       -4.6993850260       -4.9274149806
 H         1.5792698282       -4.2962157699       -5.2841504404
 H         1.1973286951       -5.9435149819       -5.1458468965
 H         0.7632327800       -6.5643043360       -8.6351361760
 H         1.0440593020       -7.2256133695       -7.0163512045
 H         2.2995173044       -6.1474160084       -7.7837655840
 H        -4.3021392958       -2.3144399070      -12.3533131162
 H        -3.1981683507       -2.1838048582      -11.0417979593
 H        -4.9583083165       -2.0768060120      -10.8222021797
 H        -6.2456531807       -3.7744280212      -11.1927099264
 H        -5.9204237280       -5.1557428965      -10.0838976633
 H        -5.7590864254       -5.2612929304      -11.7715761871
 H        -3.4952063037       -5.7871825073      -17.1753225632
 H        -2.0849391171       -6.8907702794      -17.1400790172
 H        -2.3157522700       -5.7563699674      -18.6246919287
 H         0.4837404896       -5.2249713980      -16.9638674595
 H        -0.4201764727       -6.3837872830      -16.0313099656
 H         0.1080638337       -4.8367269217      -15.2823452757
 H        -4.6164290501       -0.5417983877      -20.9400996589
 H        -4.5625365730        1.1963763413      -21.1050122666
 H        -4.6053643591        0.6761307027      -19.3446911762
 H        -2.3129104102        1.8463502099      -21.9835865886
 H        -2.4691587878        0.3381341203      -22.6547224928
 H        -0.9817432402        0.7762986752      -21.5152504156
 H        -0.0772560217        5.4042469542      -17.3899001618
 H        -0.5757191499        6.1853628307      -18.9722176120
 H         0.8865358564        6.6915196455      -18.1539707488
 H         2.1714615545        4.7115455651      -21.0553329763
 H         2.3270612738        6.2441573050      -20.3859493555
 H         0.7892108162        5.7579450556      -21.2044615457
 H         2.6969323461       -0.1317693110      -15.5961057527
 H         2.5667990800       -1.8450573211      -15.8360719278
 H         1.3081652423       -0.8119250743      -16.5049664660
 H         5.3406869202       -0.1193251250      -17.9087433678
 H         5.0300975605       -1.4797469145      -16.7072532498
 H         4.8255235970        0.2012722182      -16.2528229620
 Na        0.3459211266       -1.0873454743      -19.2603081910
 Na       -3.8104655286       -2.9572578627       -6.5632518904
