232

 C         4.4258853434       -2.2150335614      -18.6981235657
 C         3.1250648100       -1.5333659842      -18.3390516109
 O         2.1158272566       -1.9317734978      -18.8326194085
 C         3.2400982703       -0.1582512849      -17.5043888430
 C         2.8086649981        0.8793255604      -18.6299271788
 O         1.6414572880        0.7232852825      -19.0334275208
 C         3.6243084532        2.1534817164      -18.9125079028
 C         2.7601148882        3.1965445538      -19.6163616007
 C         1.9192708464        4.0005220806      -18.5772338965
 O         1.9644308337        3.8191732046      -17.3978422616
 C         0.8554626526        5.0514085430      -19.1688053440
 C        -0.2577767801        3.9758347522      -19.4840123047
 O        -0.2329035732        3.3032481944      -20.5172590724
 C        -1.4856161908        3.7848689980      -18.5092574863
 C        -2.4725964434        2.9040091211      -19.3697672789
 C        -2.0357218214        1.4833147765      -19.3263600437
 O        -1.2295321636        1.2502380891      -18.4300226497
 C        -2.6710246592        0.3683959318      -20.2582286781
 C        -2.3735224149       -1.2283902694      -19.8256681155
 O        -1.3964995534       -1.7852698863      -20.3607831764
 C        -3.3837733913       -1.9546697998      -19.0267841739
 C        -3.0321790935       -3.3992666051      -18.6260252294
 C        -1.9503678125       -3.4308768014      -17.5008132078
 O        -1.3240112567       -2.4104184709      -17.1802144967
 C        -1.6738668653       -4.8699757578      -16.8661261923
 C        -2.5479448751       -4.7473425050      -15.4585312259
 O        -3.2166978680       -3.7160274112      -15.2598284856
 C        -2.2018679310       -5.6730295361      -14.2343632165
 C        -3.3704914111       -5.7027554048      -13.1996876904
 C        -3.1190669278       -4.9438854929      -11.8206967178
 O        -1.9990116405       -4.8325518159      -11.4567061592
 C        -4.3969436172       -4.3980723833      -11.0471914102
 C        -4.0541448295       -4.3249337164       -9.5516136118
 O        -4.1522933369       -3.3106349328       -8.9792812567
 C        -3.6195471370       -5.6174859037       -8.9293599974
 C        -2.1694102113       -5.7117288926       -8.6822510361
 C        -1.5370936299       -4.8072033010       -7.5427501050
 O        -2.2773729726       -4.1469335374       -6.8420637923
 C         0.0182806081       -5.0170818180       -7.2368734955
 C         0.9060654021       -3.7668852649       -7.7393763701
 O         0.3918255556       -3.0154405949       -8.5811763379
 C         2.3681059491       -3.6858408561       -7.2749047976
 C         2.9346814085       -2.1994542483       -7.2382328227
 C         2.7814862819       -1.4757720666       -5.8323049198
 O         2.5602091387       -2.1694773115       -4.8422593877
 C         2.8930153763        0.1209927162       -5.7681124837
 C         1.5351548741        0.6937295883       -6.2709826736
 O         1.3569748571        1.2855745640       -7.3070924948
 C         0.2631670246       -0.0799183694       -5.6345398770
 C        -1.0525764584        0.6655426507       -5.2329554726
 C        -2.2959184188       -0.1522274766       -5.3742396272
 O        -2.3017397745       -1.2199197852       -6.0389253114
 C        -3.7513586667        0.4518417616       -4.8458017487
 C        -4.7590439222        0.2607482463       -6.0836784143
 O        -4.8318369062       -0.7623302752       -6.8062824599
 C        -5.5529276012        1.5042762717       -6.5542993682
 C        -6.3556814584        1.2237572332       -7.8846027675
 C        -7.3366632278       -0.0758731860       -7.6130001445
 O        -7.6249009018       -0.2683494710       -6.4481714186
 C        -7.7948759534       -0.9916693931       -8.7512620029
 C        -7.4313143152       -2.5865968406       -8.4727159262
 O        -7.1281107353       -3.3065894912       -9.3830442824
 C        -7.7512867057       -3.1593195062       -7.0749610853
 C        -7.5845583463       -4.6822331406       -6.9139493389
 C        -6.5266808248       -5.0828443827       -5.8602933945
 O        -5.5220421547       -4.4024751021       -5.8539332580
 C        -6.7583919920       -6.2599108707       -4.7805945643
 C        -7.9205909289       -5.8948979094       -3.7835863057
 O        -8.8611329881       -6.6081959003       -3.7389768762
 C        -7.6373376280       -4.6915292145       -2.9392963848
 C        -8.9319601969       -4.1712468339       -2.2325490869
 C        -9.6746401935       -3.1646621553       -3.0302130144
 O        -9.1525275230       -2.5292730743       -3.8893761569
 C       -11.2399980439       -2.7584761143       -2.5363131206
 C       -11.0464444394       -2.3457345642       -1.0655469316
 O       -10.5502154917       -3.1400888411       -0.3039497696
 C       -11.4847281646       -1.0186886581       -0.4727891450
 C       -10.2891307035       -0.3387136921        0.2744048004
 C        -9.1110642097       -0.0299277549       -0.7553156362
 O        -8.4476672937       -0.9766107027       -1.1792761400
 C        -8.6687416627        1.5021145941       -0.9986678421
 C        -7.7887222967        1.3476679485       -2.4166962119
 O        -6.5722081795        1.4743325907       -2.3784579694
 C        -8.4684426097        0.9199782628       -3.7049541233
 C        -9.8857057719        2.4803610095       -1.0892989645
 C        -7.6951058410        1.7135986325        0.1854645749
 C       -11.7686859177       -1.6741285660       -3.5021220810
 C       -12.0646094700       -4.0211734340       -2.7559259028
 C        -7.0030338348       -7.4642058072       -5.6432197904
 C        -5.3892962725       -6.2968165652       -3.9942674793
 C        -9.3820146436       -1.1170379279       -8.7290671969
 C        -7.1661608766       -0.5671443821      -10.1358358675
 C        -4.3469347653       -0.4980907760       -3.7708048934
 C        -3.7233977051        1.9231405535       -4.4001618845
 C         3.0288480629        0.4387514364       -4.3219970009
 C         4.0778190755        0.6494504516       -6.6168887142
 C         0.0954953346       -5.2385908597       -5.7622800336
 C         0.6518857854       -6.2210024874       -8.1140983796
 C        -4.7495025950       -3.0122037904      -11.6843902629
 C        -5.6407612477       -5.4544164381      -11.2110907640
 C        -2.1354372061       -6.0837709112      -17.6457417348
 C        -0.1761650756       -4.8343814704      -16.3306735201
 C        -4.2207561913        0.5623614208      -20.5194564725
 C        -2.0377262247        0.4975236816      -21.6221392628
 C         0.2859227472        6.1559223472      -18.3038704538
 C         1.2357142419        5.7392898175      -20.4680939278
 C         2.2250875219       -0.1926131262      -16.2639150345
 C         4.6578210370        0.0831371475      -16.9713042919
 H         5.1533621562       -1.4685246237      -19.0893783067
 H         4.2291372617       -2.8946424649      -19.5391406235
 H         4.8923379285       -2.8190041653      -17.9505891285
 H         4.5016298566        2.0017647244      -19.5487088779
 H         3.9586729661        2.5281881132      -17.9270176441
 H         2.2680317388        2.8230913773      -20.4409576692
 H         3.5178760851        3.9679134773      -19.9362777693
 H        -2.0776661571        4.6725474446      -18.2810281207
 H        -1.0065808594        3.4081910697      -17.5884598775
 H        -2.4756131897        3.2786492551      -20.4025210672
 H        -3.4945656556        2.9488476227      -18.9414299717
 H        -4.3450221822       -1.9582433470      -19.4860583407
 H        -3.6403734605       -1.5015001494      -18.0391978084
 H        -2.5921401751       -3.8454390844      -19.4968035378
 H        -3.9455969133       -4.0546512362      -18.3823323114
 H        -1.3455805325       -5.0958425156      -13.7630312860
 H        -1.7486878631       -6.6314641692      -14.4651416141
 H        -3.7652312212       -6.6175669721      -12.9400574953
 H        -4.2860468976       -5.3998327857      -13.7441506935
 H        -4.0378734831       -6.4454757501       -9.4915100950
 H        -4.1236090271       -5.7370039355       -7.9340217913
 H        -1.6427406718       -5.3231406077       -9.5379133924
 H        -1.7717941764       -6.7112702665       -8.4847248777
 H         2.9754911687       -4.3343159704       -7.9898472415
 H         2.5788937809       -4.1643543481       -6.3283077712
 H         2.3353589771       -1.6081356031       -8.0103938994
 H         4.0153346949       -2.1657318160       -7.4426104005
 H         0.6076215085       -0.5737342197       -4.7469376940
 H        -0.1958043845       -0.8283708647       -6.3473900650
 H        -1.1013117821        1.5897271111       -5.7861553125
 H        -0.9309436548        0.9874887771       -4.1554070712
 H        -4.8899850706        2.2995246547       -6.8592855059
 H        -6.0618179455        1.8777335201       -5.6400881824
 H        -5.6223968312        0.9375687296       -8.6841549806
 H        -6.8767967008        2.0829570518       -8.1294325579
 H        -8.8612399378       -2.9679643937       -6.8157378190
 H        -7.1361447960       -2.7073519192       -6.3015926787
 H        -7.3081375867       -5.1746963212       -7.8426544309
 H        -8.5843148541       -5.1124310618       -6.7908910296
 H        -7.2108272960       -3.8168857108       -3.5247339510
 H        -7.0374150725       -5.0467352782       -2.0780157774
 H        -8.7114072477       -3.6485221135       -1.3162592530
 H        -9.6276935955       -4.9411064865       -2.0499550960
 H       -12.3109734199       -1.3361712926        0.2154787865
 H       -11.8139076422       -0.4653769837       -1.3797437059
 H        -9.9845940276       -1.0679463306        0.9975569928
 H       -10.6740692691        0.5907356564        0.7592266229
 H        -9.3122837293        0.2131485300       -3.6218599165
 H        -7.7518287217        0.5488487372       -4.4601387115
 H        -8.9485463543        1.7848222320       -4.2650973417
 H        -9.8156937857        3.2770614599       -1.9012712853
 H        -9.9390170413        3.1502720440       -0.1743531233
 H       -10.7893735192        1.8817926367       -1.3451343660
 H        -8.3343745816        1.4094783675        1.0874751103
 H        -7.5442041569        2.7838031790        0.1248358291
 H        -6.6817071328        1.2184408783        0.2293466287
 H       -12.0683410090       -1.9956804675       -4.5141961616
 H       -10.9487841798       -0.8479434086       -3.5673415108
 H       -12.6921919537       -1.1230780643       -3.1352235051
 H       -13.0979244702       -3.7318344657       -2.7412696269
 H       -11.8707615136       -4.8808249028       -2.1069145784
 H       -11.9852257661       -4.4801538551       -3.7471237777
 H        -7.9190508906       -7.3886593545       -6.2654620832
 H        -6.9912913238       -8.4024703482       -5.0075628149
 H        -6.1091172586       -7.5502255622       -6.2720462602
 H        -4.5872850345       -6.8610813787       -4.5163509273
 H        -5.3783220330       -6.7152689978       -3.0408278222
 H        -5.0235518228       -5.2862452867       -3.9939818174
 H        -9.7505909835       -1.6480295403       -9.5605682485
 H       -10.0225660854       -0.2270154993       -8.7562501518
 H        -9.6366346897       -1.6269313586       -7.8026837096
 H        -6.1289829602       -0.7176665010      -10.1879984454
 H        -7.2606200962        0.5309485890      -10.1356080766
 H        -7.7567591165       -1.1001487546      -10.8824008556
 H        -5.2383120400        0.1064573018       -3.3165497774
 H        -3.5413623574       -0.6412488616       -3.0801252773
 H        -4.5643824293       -1.4821721888       -4.2630637405
 H        -3.0472727375        2.0201856046       -3.6146418710
 H        -4.6956188035        2.1695083963       -3.9762155848
 H        -3.5630919711        2.7234317860       -5.1223729503
 H         3.7689437603       -0.1656296789       -3.8052489922
 H         2.1131603724        0.1230579830       -3.7319547728
 H         3.2735192559        1.5071453691       -4.1867024168
 H         3.8574784928        0.5129831370       -7.6869046185
 H         5.0774418613        0.1990899619       -6.4388560057
 H         4.1822217868        1.7056555601       -6.4249364030
 H        -0.4014476501       -6.1731129355       -5.4635541944
 H        -0.5004422110       -4.4452150388       -5.3055288600
 H         1.0638813106       -5.1441515002       -5.2941371471
 H         0.2142771358       -6.1200122763       -9.0851069642
 H         0.5440708037       -7.1666932146       -7.5342632644
 H         1.6933692804       -6.0454129813       -8.1755662638
 H        -5.2469438263       -3.2290191234      -12.6680337499
 H        -4.0215033299       -2.3093611464      -11.8797264875
 H        -5.4182752293       -2.5581770176      -11.0134840886
 H        -5.9865807952       -5.8127684406      -10.2423238755
 H        -5.2867758977       -6.2377787808      -11.7781979367
 H        -6.5104271462       -5.0404740232      -11.6513247458
 H        -2.9816884477       -5.8199172864      -18.3198626978
 H        -2.5843191716       -6.8690134367      -17.0251627566
 H        -1.2503699892       -6.5707728166      -18.1955701275
 H         0.5641117378       -4.6363144863      -17.1404405119
 H         0.0861416189       -5.7466430832      -15.8279708731
 H        -0.0971187432       -4.0100305820      -15.6030103167
 H        -4.6436239433       -0.4074674113      -20.9245029598
 H        -4.2979231909        1.4648279016      -21.2249173622
 H        -4.5814154760        0.7192868030      -19.5047240719
 H        -2.2486211358        1.5278439274      -22.0648305549
 H        -2.6076564317       -0.2083624830      -22.2858277609
 H        -1.0332942333        0.2478312184      -21.7641485831
 H         0.1402044606        5.7122634853      -17.3480709910
 H        -0.5057094449        6.6352896139      -18.8652495259
 H         1.0969187967        6.9262479197      -18.1279413034
 H         1.3994750232        6.8242024877      -20.3799712187
 H         0.4059430877        5.6912775081      -21.1933239042
 H         2.1344611066        5.4801526691      -20.8799074940
 H         1.6683755005        0.7801782468      -16.2504582088
 H         2.7714427878       -0.2900316968      -15.3517403181
 H         1.4903204594       -0.9901469320      -16.4098038362
 H         5.3946293392        0.2937297583      -17.7481398517
 H         4.8953353716       -0.8759865612      -16.4960742208
 H         4.5758275237        0.9146885065      -16.2511474034
 Na        0.0082079066       -0.8809454893      -18.4683845026
 Na       -4.0600156263       -2.8104739297       -6.7204732968
