232

 C         4.5442421312       -1.9169918568      -18.4074708267
 C         3.2680888255       -1.1823143515      -17.9549165901
 O         2.2372486533       -1.8641042824      -18.0947736361
 C         3.2485630581        0.2417912839      -17.4686684683
 C         2.6185451504        1.0912099187      -18.7798091123
 O         1.4620337241        1.0236767143      -19.0647030257
 C         3.4998716011        2.2170019477      -19.5595649240
 C         2.6464064541        3.4450803834      -20.0129633890
 C         1.6976196417        3.9236901977      -18.8910651906
 O         1.7969091245        3.6007192597      -17.7035450050
 C         0.5948431436        4.9127290668      -19.2949147066
 C        -0.6321631160        4.0558464527      -19.6809943604
 O        -0.7404279867        3.7432640293      -20.8060090702
 C        -1.7250054763        3.7356886753      -18.5914432881
 C        -2.7870883491        2.7771626719      -19.1069280341
 C        -2.3312775630        1.2923123682      -18.9595281491
 O        -1.7338079950        1.0482651985      -17.9731718185
 C        -2.7713113198        0.2423610105      -20.1495592997
 C        -2.4513266493       -1.1966705873      -19.7718120293
 O        -1.4388917547       -1.7839644392      -20.1996281494
 C        -3.5840778390       -1.9792497651      -19.0018296874
 C        -3.1665656601       -3.3796161585      -18.4512784251
 C        -1.9854019512       -3.2919250697      -17.4204589170
 O        -1.3127400120       -2.3023231130      -17.2663475588
 C        -1.6321083460       -4.5759813014      -16.6812282251
 C        -2.6112901394       -4.6893115562      -15.4632527823
 O        -3.5437629402       -3.9957764550      -15.2682294840
 C        -2.1796333008       -5.7837062621      -14.4691998241
 C        -3.3289015217       -6.1470185878      -13.4794799969
 C        -3.1492002679       -5.4434543203      -12.1434631324
 O        -2.0690553807       -5.3628881518      -11.5481256522
 C        -4.5012390058       -4.8935957696      -11.4279189014
 C        -4.0618003945       -4.4452682895       -9.9602107305
 O        -4.1122221238       -3.1998675198       -9.6643497564
 C        -3.6897393701       -5.5978324922       -9.0458127290
 C        -2.2573552517       -5.8206833328       -8.6362885820
 C        -1.5094868806       -4.9435172849       -7.6062188218
 O        -1.9825121043       -3.9476389962       -7.1106332107
 C        -0.0614509563       -5.2861872552       -7.1522625951
 C         0.7301059392       -3.9759441008       -7.4938239603
 O         0.2464869441       -3.1047849770       -8.1509013712
 C         2.1847234218       -3.8615199540       -6.9945753290
 C         2.6410262968       -2.3498581097       -7.0672138960
 C         2.7240339647       -1.6551701025       -5.6957319264
 O         2.5133883269       -2.2121796840       -4.6608539633
 C         2.9045767180       -0.0382792413       -5.8205629036
 C         1.4528787781        0.5945372669       -6.1173086689
 O         1.3117486387        1.6024433558       -6.7575378104
 C         0.1882178534       -0.1077463373       -5.6648111451
 C        -1.1985129941        0.6485774177       -5.8199707057
 C        -2.3178892175       -0.3597346061       -5.7973919236
 O        -2.2172365793       -1.3668773024       -6.3791146992
 C        -3.7355746492        0.0714992372       -5.1985965068
 C        -4.6676333037        0.1567527673       -6.4273791596
 O        -4.7959100041       -0.7161793332       -7.2196479979
 C        -5.3420824589        1.5440566312       -6.8275977552
 C        -6.2743020477        1.3242356206       -7.9450095518
 C        -7.2845877681        0.2187791417       -7.5644270724
 O        -7.4063383000        0.0663157280       -6.3480894019
 C        -7.8757993625       -0.8838214627       -8.5358558047
 C        -7.4285718282       -2.3190408673       -8.2212911924
 O        -7.2392399260       -3.0966777399       -9.1461448090
 C        -7.4298238355       -2.9677636817       -6.7903215710
 C        -7.0955611787       -4.4673811836       -6.8528889031
 C        -6.1176445606       -4.9000945042       -5.7514323598
 O        -5.0592062996       -4.2908634952       -5.6440513912
 C        -6.3261854266       -6.1719544713       -4.9511390058
 C        -7.5761825016       -5.7373898369       -3.9946707695
 O        -8.7133218942       -5.9365110945       -4.3974470064
 C        -7.3737461636       -5.0712287173       -2.6395630007
 C        -8.6630817317       -4.6499921319       -1.7944959495
 C        -9.3603111263       -3.4084413038       -2.6233820697
 O        -8.8257352980       -2.9935257408       -3.6577472222
 C       -10.7608207245       -2.9520514915       -2.2147454356
 C       -10.8654761918       -2.3800919746       -0.7487212697
 O       -10.4603246705       -3.0723864724        0.1522811225
 C       -11.5691749691       -0.9747210544       -0.4104113884
 C       -10.5492769542       -0.0104085297        0.1726056175
 C        -9.3905509284        0.2290936974       -0.8209811050
 O        -8.9771196923       -0.6424976340       -1.5430758142
 C        -8.6720498553        1.6170319509       -1.0380979357
 C        -7.7715569814        1.5921053410       -2.3832962139
 O        -6.5474921751        1.6669655352       -2.3396911942
 C        -8.4207353574        1.2964561153       -3.7240770801
 C        -9.5344715947        2.8382382683       -0.9459582468
 C        -7.6200039567        1.6666904890        0.2024645908
 C       -11.2571114113       -1.8613950822       -3.2072752301
 C       -11.7164402379       -4.1765398410       -2.1921114875
 C        -6.7790190038       -7.2823756863       -6.0353024943
 C        -5.0845903967       -6.6853365359       -4.2509072437
 C        -9.4792773862       -0.8386829491       -8.4315104010
 C        -7.5523588209       -0.4737265485      -10.0257988160
 C        -4.2935175395       -0.9720959822       -4.1404659360
 C        -3.6375184590        1.3963506474       -4.3144423531
 C         3.1896733583        0.4584558724       -4.3984892134
 C         3.9469311737        0.5982348519       -6.8111538780
 C        -0.0916262872       -5.6557862917       -5.6052400683
 C         0.6410332612       -6.4489135188       -7.9731051504
 C        -5.1229719906       -3.6457349638      -12.2607717395
 C        -5.5280205279       -6.0277980960      -11.1943504313
 C        -1.9167780372       -5.7736355355      -17.6295550224
 C        -0.1183704502       -4.5569941994      -16.2312858394
 C        -4.3135574196        0.4451456874      -20.4781357019
 C        -1.8148395592        0.5622613454      -21.2940694293
 C         0.0853837048        5.7983283115      -18.0952764133
 C         1.0453136097        5.9149167563      -20.4627987873
 C         2.1996151088        0.4565770995      -16.2986001987
 C         4.6673150483        0.7380638191      -17.0109689559
 H         4.8776142684       -1.6683045048      -19.3740293943
 H         4.3854391832       -2.9965805624      -18.5610581734
 H         5.3369380451       -1.7828383183      -17.6416564282
 H         4.1853194432        1.8140175592      -20.2780008350
 H         4.1823726027        2.6564226226      -18.7914917726
 H         1.9377046657        3.2367046709      -20.8477487661
 H         3.2251675323        4.2458922636      -20.4016273182
 H        -2.1516028469        4.7509429908      -18.4886926080
 H        -1.3348894483        3.3192873521      -17.6640754042
 H        -2.9778792858        2.9238154527      -20.1669649030
 H        -3.7735565189        2.8315011716      -18.5739060000
 H        -4.4109368691       -2.1498787092      -19.7086864791
 H        -4.1771408811       -1.4895073333      -18.2858411965
 H        -2.9935915073       -3.8884747852      -19.4702812921
 H        -4.0090597120       -3.8169584787      -17.9722539261
 H        -1.3053724301       -5.5860403150      -13.8952580579
 H        -1.7995281578       -6.6703730460      -15.0934386151
 H        -3.3078777490       -7.2422730275      -13.3688050503
 H        -4.3562298280       -5.9477047994      -13.7821131061
 H        -3.9172209855       -6.6239987360       -9.4237016716
 H        -4.3356569595       -5.4406882264       -8.1792164493
 H        -1.5762319874       -6.0243975953       -9.4405651364
 H        -2.2288397316       -6.8326158286       -8.2194949687
 H         2.9694032076       -4.3478851447       -7.5335448984
 H         2.3409855714       -4.2581156989       -5.9170361866
 H         1.9495153734       -1.7613106288       -7.6966198232
 H         3.6905148475       -2.3123973926       -7.4709655178
 H         0.2373916261       -0.3780344926       -4.5830223441
 H         0.0734684520       -1.0736537824       -6.1919454015
 H        -1.1093251369        1.1284106247       -6.8247333166
 H        -1.2184137079        1.3829511145       -5.1051849175
 H        -4.5625063789        2.2265855027       -7.0936692820
 H        -5.8806579071        1.9199178021       -5.9219992394
 H        -5.7822693090        0.9313495146       -8.8108433797
 H        -6.8843728743        2.2307387636       -8.0705067550
 H        -8.3535975850       -2.8099127152       -6.2597086862
 H        -6.5646790933       -2.4972554983       -6.2357344054
 H        -6.6548888297       -4.5861503330       -7.8695739965
 H        -7.9987310698       -4.9951134087       -6.9729813842
 H        -6.7623071959       -4.1163096668       -2.7279915034
 H        -6.7159379768       -5.7448195108       -2.0154746986
 H        -8.3575061977       -4.1665193271       -0.8854332742
 H        -9.2850963869       -5.4567598067       -1.4888585897
 H       -12.3168194062       -1.2862677960        0.4050290962
 H       -12.1365409216       -0.5410401719       -1.2583039596
 H       -10.1859575103       -0.2782873298        1.1676933013
 H       -11.1371021399        0.9090621050        0.2493866741
 H        -8.2443010580        1.8990449944       -4.6233050108
 H        -9.5482799779        1.4282628014       -3.7266774523
 H        -8.0783202841        0.2836763730       -3.9406581052
 H        -8.8745285579        3.6803058649       -1.1890045001
 H       -10.1153281184        2.8548623589        0.0060082222
 H       -10.4025552903        2.8219018786       -1.6977590534
 H        -8.0140787580        1.6751793903        1.2377735239
 H        -7.0088311511        2.5975187703       -0.0227648612
 H        -7.0644299686        0.7475630555       -0.0531458116
 H       -11.2987701271       -2.3164648663       -4.2409018274
 H       -10.7209670460       -0.8896105333       -3.0946581070
 H       -12.3232285166       -1.5817263667       -2.9126077882
 H       -12.7258226787       -3.9562641139       -1.6988393171
 H       -11.3369646662       -4.9530698696       -1.5116740566
 H       -11.9141951593       -4.7050048559       -3.1320121079
 H        -7.7938307005       -7.0446230158       -6.4413072435
 H        -6.7266958361       -8.2580176770       -5.5942084209
 H        -6.1989922801       -7.3196183247       -6.9955933440
 H        -4.2703228238       -6.8135620581       -4.9161949460
 H        -5.2963288694       -7.7307951682       -3.8800804149
 H        -4.8286144012       -6.1431532945       -3.3574134851
 H        -9.8236777944       -1.5373183144       -9.2169770116
 H        -9.8481341529        0.1237014517       -8.6071889004
 H        -9.9579334638       -1.2523156835       -7.5555944517
 H        -6.4367472122       -0.5643370000      -10.0890810694
 H        -7.8877245128        0.5193518451      -10.1824330580
 H        -8.0358102024       -1.1421020756      -10.7561374786
 H        -5.2587670615       -0.6638937994       -3.8075041819
 H        -3.5053297204       -0.8847503536       -3.2852101003
 H        -4.3378674101       -1.8795425372       -4.7526925759
 H        -2.8043129762        1.5433696698       -3.6478573569
 H        -4.4415980997        1.3888082836       -3.6514486267
 H        -3.6207828615        2.3488626692       -4.8365869757
 H         4.2981141679        0.4665424747       -4.1871302401
 H         2.6071373443       -0.0446814491       -3.6284970218
 H         2.7606661211        1.4831620824       -4.2434612807
 H         4.1253536264       -0.0159701139       -7.6668091736
 H         4.8620108865        0.6886664290       -6.2276397098
 H         3.7641907121        1.5963663136       -7.2317371892
 H        -0.7589243352       -6.4888307266       -5.5705760236
 H        -0.5685694006       -4.8429107840       -5.0466470561
 H         0.8998239573       -5.9892263691       -5.1900955750
 H         0.6357631706       -6.3226085718       -9.0731411387
 H         0.0857033406       -7.2752616991       -7.6599518328
 H         1.6357575537       -6.4532476308       -7.4986858906
 H        -5.8309389393       -3.9054042121      -12.9372761549
 H        -4.3648910922       -2.9573671902      -12.6870621748
 H        -5.5578524423       -2.9913686889      -11.5395282185
 H        -5.1715813294       -6.9469039153      -11.5012446918
 H        -6.4656850772       -5.8933497799      -11.7634058421
 H        -5.8393701901       -6.0552066754      -10.2027320037
 H        -2.9084520595       -6.2591541116      -17.6432864176
 H        -1.0557726609       -6.5419535967      -17.5978577470
 H        -1.8765299509       -5.4732203843      -18.6968329783
 H         0.4589618691       -4.9084245135      -17.0450978928
 H         0.0038788715       -5.0761619991      -15.2866607886
 H         0.2036455844       -3.5553972351      -16.0529729752
 H        -4.6594882432       -0.4317341154      -21.1096895478
 H        -4.2976510643        1.3774643557      -21.0633668336
 H        -4.9603624894        0.7003041981      -19.5583084992
 H        -1.6171654323        1.5757423201      -21.5823991855
 H        -1.9669749661       -0.1099059520      -22.1531698501
 H        -0.8089153927        0.0578203578      -21.0938172614
 H        -0.2703842255        5.0652556568      -17.3136966752
 H        -0.7612950524        6.4170162238      -18.4786702072
 H         0.9211542812        6.3749594956      -17.8694217708
 H         0.2392525260        6.1122913532      -21.1283664396
 H         1.9297280202        5.6191522473      -20.9861132080
 H         1.3629967861        6.9407863822      -20.1376751239
 H         2.6447242680        1.0268452883      -15.5591292615
 H         1.9311170766       -0.5409565107      -15.9190940228
 H         1.3724595170        1.0786040711      -16.6954112629
 H         5.2892756596        0.4409115924      -17.8794096475
 H         4.9592662132        0.0222947911      -16.2329636459
 H         4.6245827632        1.7478811789      -16.6860083411
 Na        0.0895442366       -0.7523937579      -18.2197260808
 Na       -4.0195768403       -2.8250332692       -7.2033216388
