232

 C         4.6230488399       -1.7488622423      -18.3604429318
 C         3.2930764404       -1.1769211663      -17.8608519643
 O         2.1806786183       -1.7413547858      -17.9901705687
 C         3.3083599091        0.3301667787      -17.5324447636
 C         2.6184748514        1.1128347286      -18.7395859853
 O         1.5402598325        0.7786611576      -19.1845732827
 C         3.3802245229        2.0926675831      -19.5420586144
 C         2.5713548959        3.2591628694      -19.9274067788
 C         1.6647877941        3.9818209429      -18.8964913935
 O         1.7543585632        3.6201148836      -17.7495916855
 C         0.4724738776        4.9759324712      -19.2571075181
 C        -0.7325558007        4.1411241716      -19.7027905305
 O        -0.9660670699        3.7744704214      -20.8653235490
 C        -1.7474724269        3.6606897540      -18.6183022494
 C        -2.8498522639        2.8255031987      -19.2346434911
 C        -2.4215960940        1.2983976708      -19.0087808929
 O        -1.7819058052        0.9643812623      -18.0045599027
 C        -2.7026544920        0.2718698992      -20.1323773619
 C        -2.4497380572       -1.2036493872      -19.7737170800
 O        -1.5151110754       -1.8226890652      -20.1582322687
 C        -3.5770835951       -1.9184232838      -18.9957492727
 C        -3.1882800496       -3.2617068614      -18.3541715878
 C        -1.9672494650       -3.2585296051      -17.4820037371
 O        -1.3181240549       -2.2282429082      -17.3418281227
 C        -1.6778335434       -4.5556970001      -16.7120245061
 C        -2.6239053252       -4.7695239325      -15.4057818156
 O        -3.6120032496       -4.0622321867      -15.2444311205
 C        -2.2016302425       -5.8078148791      -14.3759240764
 C        -3.4134084018       -6.0922147619      -13.4657634397
 C        -3.1840198496       -5.4971909493      -12.1313928396
 O        -2.0712103804       -5.5334969181      -11.6173498107
 C        -4.4128946842       -5.0057828400      -11.4377539230
 C        -3.9107359408       -4.4649638075      -10.0393468397
 O        -3.9350450677       -3.2973021215       -9.7611625685
 C        -3.5479986510       -5.6321563323       -9.0960694427
 C        -2.0278516878       -5.8810084302       -8.8033556180
 C        -1.4859625045       -5.0232124992       -7.6701237425
 O        -2.1806919709       -4.1003098974       -7.1845472758
 C        -0.0539130850       -5.3606728768       -7.1491148050
 C         0.7756583630       -3.9681435475       -7.4052454193
 O         0.1874920970       -3.1187929058       -8.0395903230
 C         2.1773983347       -3.8537700042       -6.8905484445
 C         2.7806865169       -2.4214746020       -7.0922651193
 C         2.7294488832       -1.5785441499       -5.7217394735
 O         2.6062677199       -2.2340141386       -4.6885326427
 C         2.8824622981       -0.0471903425       -5.7542843664
 C         1.4062374310        0.6416865969       -6.1837716288
 O         1.4544535625        1.7167131922       -6.7095185093
 C         0.1399281655       -0.0760649733       -5.6387562149
 C        -1.1784163532        0.6161488821       -5.8447215868
 C        -2.4327927393       -0.3672246269       -5.9056731273
 O        -2.2911846627       -1.4472931340       -6.4417700715
 C        -3.8612073205       -0.0383427321       -5.2825225335
 C        -4.7390199772        0.2426921581       -6.5261515651
 O        -4.9201781946       -0.6804642393       -7.2716515691
 C        -5.2869772874        1.6223174462       -6.8919848708
 C        -6.3269959112        1.3606945154       -7.9918238832
 C        -7.3410895612        0.2885070791       -7.3727992718
 O        -7.5969910817        0.2014858303       -6.2121576567
 C        -7.8751861818       -0.7466599052       -8.4361467398
 C        -7.4536354982       -2.3071550576       -8.1716612884
 O        -7.4095722558       -3.0666942215       -9.1426946022
 C        -7.3416229660       -2.8209504674       -6.7469966295
 C        -6.9736258427       -4.3517740434       -6.7777237939
 C        -5.9080057686       -4.8496071128       -5.8395586295
 O        -4.8571964174       -4.2501894964       -5.6188503584
 C        -6.3180021654       -6.1169644313       -5.0190518975
 C        -7.6175257119       -5.6895014887       -3.9864397100
 O        -8.6884977371       -5.7193472518       -4.4725225148
 C        -7.2841809130       -5.1301634600       -2.5410861317
 C        -8.5736309986       -4.6420956337       -1.8581304389
 C        -9.3292702333       -3.5609156133       -2.5965873550
 O        -8.7716582162       -3.0817608290       -3.5555227650
 C       -10.8015457253       -2.9760313659       -2.1276398375
 C       -10.7176570511       -2.3767345019       -0.6549597879
 O       -10.2352182656       -2.9877786047        0.2575742018
 C       -11.4754835563       -1.0452733590       -0.3828563188
 C       -10.4992923926        0.0678008640        0.0369516893
 C        -9.3405563144        0.2862122294       -1.0187245235
 O        -9.0514135104       -0.7374163793       -1.6469131703
 C        -8.5884799393        1.6799049111       -1.0462470429
 C        -7.8053566135        1.5728464522       -2.2947336089
 O        -6.5994340468        1.7607501488       -2.2462584234
 C        -8.5526238966        1.3263237349       -3.5745586525
 C        -9.4268792624        3.0095485334       -0.9538588236
 C        -7.6239859855        1.5787061896        0.1724398846
 C       -11.2380745637       -2.0215761826       -3.2616623202
 C       -11.7663465113       -4.1463128286       -2.1808327719
 C        -6.7542598867       -7.2583785496       -6.0311443854
 C        -5.1142408232       -6.6893249781       -4.3039908546
 C        -9.4259158781       -0.8510745013       -8.3527735364
 C        -7.5595957530       -0.4512621502       -9.9663452718
 C        -4.3705980105       -1.0943958757       -4.2723065183
 C        -3.7121794563        1.3432635460       -4.4866999456
 C         3.3095964115        0.4042297772       -4.3432036539
 C         3.8493974830        0.4383030797       -6.8267149519
 C        -0.1299415214       -5.7415215276       -5.7133928384
 C         0.6796037718       -6.5497865208       -7.9404906999
 C        -5.1103432614       -3.8447880048      -12.2367555503
 C        -5.4606747867       -6.0993833910      -11.3037294629
 C        -1.7600894409       -5.8534475097      -17.5591468942
 C        -0.2675858289       -4.5064828000      -16.1220481239
 C        -4.2300035494        0.4078972953      -20.3466092263
 C        -1.7059667187        0.6480665491      -21.2832318319
 C         0.2012491094        5.8910012074      -17.9542142207
 C         0.7631737950        5.8347146823      -20.4906670822
 C         2.2500570414        0.6632289380      -16.3376274789
 C         4.7270393074        0.8414107393      -17.0090347445
 H         4.9087082335       -1.1407300134      -19.2333818544
 H         4.6653951766       -2.7122361346      -18.8212235958
 H         5.3597671678       -1.6451118288      -17.5660268776
 H         3.6830622882        1.5674358511      -20.4375435193
 H         4.3184982645        2.3534325896      -19.1558676320
 H         1.8831245330        3.0030262027      -20.8208099821
 H         3.2269545511        3.9688844796      -20.3982838995
 H        -2.1412767327        4.5393322963      -18.0585199839
 H        -1.1865150653        2.9564372645      -17.9610652526
 H        -2.9287706991        2.9455291483      -20.3607249241
 H        -3.8701376132        2.9760518247      -18.8123377460
 H        -4.6223118347       -1.9816781763      -19.2781896780
 H        -3.7782371633       -1.3164376127      -18.1035502000
 H        -3.0661196206       -3.8852974556      -19.2421493436
 H        -4.0280805223       -3.6023135124      -17.7761352151
 H        -1.3904301840       -5.5337325594      -13.7487668128
 H        -1.8129155681       -6.6376613074      -14.9613657974
 H        -3.6248061534       -7.2503973939      -13.4804911825
 H        -4.3500771136       -5.6435302358      -13.8472617300
 H        -3.8696685335       -6.6221108681       -9.3817920168
 H        -4.0779979012       -5.3490394036       -8.1896839357
 H        -1.3274311937       -5.7211430474       -9.6212937158
 H        -1.7985838042       -6.9230892515       -8.6582812264
 H         2.9337114789       -4.5330501349       -7.2539913575
 H         2.2001941591       -4.0402607397       -5.7832156368
 H         2.1774224086       -1.8681944197       -7.8081292067
 H         3.8510953612       -2.4996647216       -7.4286261123
 H         0.3575593303       -0.2482111183       -4.5478531873
 H         0.0355080741       -1.0599373670       -6.0465145480
 H        -0.8853699010        1.1522252700       -6.6852871264
 H        -1.3092379919        1.3639841247       -4.9701185499
 H        -4.4003636363        2.2386376973       -7.3036980548
 H        -5.5935109007        2.0179585174       -5.9288830980
 H        -5.8463663551        0.9157788440       -8.8510492117
 H        -7.0296430858        2.2680314444       -8.1690981844
 H        -8.2840787152       -2.7366059922       -6.2947667778
 H        -6.6207055917       -2.2095627968       -6.1943908095
 H        -6.8570629821       -4.6409867825       -7.8669448505
 H        -7.9665256751       -4.8145993531       -6.5456698372
 H        -6.4715416621       -4.3954773615       -2.4966158140
 H        -6.8795288349       -5.9656179361       -1.9032775956
 H        -8.4372808161       -4.2820074539       -0.8482607933
 H        -9.2680301911       -5.4988776757       -1.7346663751
 H       -12.2908666563       -1.3556546836        0.2912501883
 H       -12.0158025218       -0.8019794856       -1.3446321369
 H        -9.8811821522       -0.3311874291        0.8701892900
 H       -11.0096677830        0.9232602359        0.3725101869
 H        -8.0336415876        1.4327825968       -4.5526953849
 H        -9.3970317478        2.0280128470       -3.7685673194
 H        -8.8141096182        0.2239078381       -3.5858185034
 H        -8.6452512050        3.7711402032       -1.3094994612
 H       -10.1001584131        3.2029578374       -0.0846372496
 H       -10.1752559583        2.9591092856       -1.7894350513
 H        -8.2510295291        1.4384733955        1.0636617174
 H        -7.1755938887        2.6138117688        0.2702857968
 H        -6.9220500769        0.7053190502        0.0129053922
 H       -11.5256036895       -2.6041613745       -4.2227539787
 H       -10.5418158128       -1.2028805720       -3.4049501887
 H       -12.1184286093       -1.5642832396       -2.9351355238
 H       -12.7593383254       -3.9931400051       -1.9606780374
 H       -11.4914755207       -4.9453286071       -1.5043843882
 H       -11.6874444397       -4.5851036415       -3.1665059872
 H        -7.8501583804       -7.1687673641       -6.1605205113
 H        -6.4819558077       -8.2103411892       -5.7312623061
 H        -6.4438449294       -7.1210563701       -7.0869830739
 H        -4.3790236488       -6.9601145890       -5.0273700094
 H        -5.3518345545       -7.6029669665       -3.7605032484
 H        -4.7266566580       -6.0310011925       -3.5214356724
 H        -9.7818402631       -1.5148074880       -9.1826674172
 H        -9.8572337316        0.1932159940       -8.4066155830
 H        -9.8698204094       -1.3366398049       -7.4979192138
 H        -6.5430608900       -0.7472723213      -10.1138663023
 H        -7.7884123668        0.5788961302      -10.2806829825
 H        -8.1373619563       -1.0522382582      -10.5618748215
 H        -5.3696614594       -0.7576746041       -3.9270922737
 H        -3.7056532677       -1.0101324744       -3.4894231299
 H        -4.4355156537       -1.9962749963       -4.8290316698
 H        -3.0812516629        1.3845546073       -3.5734282345
 H        -4.6372538647        1.7200007300       -4.0748753681
 H        -3.2501911543        2.0367086294       -5.0740044646
 H         4.3858815157        0.2340691086       -4.1192568592
 H         2.5742296811       -0.0231264909       -3.6027070287
 H         2.9803117258        1.5212675135       -4.1386792898
 H         3.6235241699       -0.0280619517       -7.8859829138
 H         4.8130617403        0.1531050805       -6.5185867007
 H         3.9364781466        1.5242710540       -7.0011684391
 H        -1.1195238169       -6.2354236794       -5.5248811575
 H        -0.0470601554       -4.8675759754       -5.0506850261
 H         0.6009823079       -6.4607413647       -5.5341790702
 H         0.4300925607       -6.5505628947       -9.0109777953
 H         0.3257947351       -7.4140628919       -7.5061322479
 H         1.6895843992       -6.4275878131       -7.7657703775
 H        -5.9402061713       -4.2215871850      -12.8642855222
 H        -4.3818624156       -3.3420041945      -12.8734390235
 H        -5.5224836981       -3.0314072154      -11.6433672569
 H        -5.2190662449       -7.1362949404      -11.3132675306
 H        -6.1160724833       -5.9862729027      -12.1076793508
 H        -6.0790840540       -5.8014468404      -10.4961532048
 H        -2.8057628400       -5.9563283060      -18.0671196839
 H        -1.3452405737       -6.7691245638      -17.1351703057
 H        -1.2078378201       -5.7261105890      -18.5082821460
 H         0.3516463691       -4.8185360949      -16.9607549335
 H        -0.2237503231       -5.2310255429      -15.2926049003
 H         0.1063662899       -3.5428450207      -15.7343594277
 H        -4.4941292418       -0.5435086901      -20.9162787720
 H        -4.5266604695        1.2900774672      -20.9213424009
 H        -4.7251928288        0.5218026096      -19.3023178505
 H        -1.6347254228        1.7955656022      -21.6327529250
 H        -1.7516748330       -0.0390367949      -22.1202335415
 H        -0.7316217702        0.3624985308      -21.0297815136
 H         0.2560381182        5.0977564440      -17.1965713141
 H        -0.8098305714        6.3638606462      -17.9440168751
 H         1.1477851991        6.5741299920      -18.0068994848
 H         0.0250049345        5.6591533541      -21.2160211021
 H         1.7334474238        5.6424927447      -20.8274563790
 H         0.8005496929        6.9026074535      -20.3725042506
 H         2.8614191873        1.1055169368      -15.4939718178
 H         1.9163445809       -0.3206525935      -16.0260229278
 H         1.5261968130        1.3585188727      -16.6320441369
 H         5.4366776999        0.5142503308      -17.7104749411
 H         4.9042949356        0.3626253644      -16.0568577328
 H         4.5951856296        1.9387861788      -16.8842199871
 Na       -0.0311689421       -0.5973846950      -18.1662793454
 Na       -4.0510784659       -2.8598765808       -7.2195549699
