232

 C         4.4603561205       -1.6097655693      -18.0696973448
 C         3.2175098709       -0.8893015845      -17.7560108073
 O         2.1934390877       -1.5444757048      -17.4561522145
 C         3.1454923754        0.6676872902      -17.5574684062
 C         2.5548092160        1.1972741443      -18.9529494805
 O         1.5422645688        0.6629285731      -19.3923685047
 C         3.2179440806        2.3374871109      -19.6972279084
 C         2.0944203596        3.1569102898      -20.2820859099
 C         1.4171122955        3.8848157460      -19.1045044806
 O         1.6295342181        3.4298782051      -17.9814450351
 C         0.3207438719        5.1164427977      -19.2997309230
 C        -0.9835719361        4.2492554215      -19.6312699276
 O        -1.2753917632        3.8828746487      -20.7448199881
 C        -1.8484918576        3.8256085884      -18.3364526647
 C        -2.9581089046        2.7596512939      -18.8198243204
 C        -2.4805881033        1.2911069905      -19.0243595015
 O        -1.8415876844        0.8612177133      -18.1036112100
 C        -2.8491799558        0.3509144924      -20.2021276897
 C        -2.5664639736       -1.0854336267      -19.6450660822
 O        -1.5003536189       -1.5876716900      -19.8841700090
 C        -3.5919484619       -1.6939426420      -18.6409653290
 C        -3.1560775270       -3.1899593549      -18.2251459099
 C        -1.8705946239       -3.2031695059      -17.3745471462
 O        -1.2373800169       -2.2016943559      -17.1082694603
 C        -1.4942893728       -4.5817575896      -16.6912161671
 C        -2.6395907719       -4.8844726074      -15.6577178064
 O        -3.6362333283       -4.1955261831      -15.4976882630
 C        -2.4518126492       -6.1558970716      -14.7226495945
 C        -3.6107574302       -6.4442572672      -13.6935527230
 C        -3.2420545919       -5.8586636077      -12.3392241131
 O        -2.0776180074       -5.7045776772      -11.9663485856
 C        -4.4504720293       -5.3068365213      -11.4111282916
 C        -3.8760900893       -5.0043693682      -10.0312775422
 O        -3.9235446397       -3.8108018037       -9.6751059171
 C        -3.4095864710       -6.0695766398       -9.1038134227
 C        -1.8882608407       -5.8456605293       -8.8949890668
 C        -1.3914282706       -5.2104972030       -7.5853357403
 O        -2.2081459655       -4.6239624348       -6.8360335473
 C         0.0751940368       -5.4555550477       -7.1845649364
 C         0.8170491384       -4.0267267798       -7.2740384754
 O         0.2563619543       -3.0959575620       -7.7890928865
 C         2.2800420772       -4.0468113863       -6.7922618939
 C         2.8554610320       -2.6031603286       -6.9151090568
 C         2.8244469628       -1.7340001977       -5.6107523226
 O         2.5481608592       -2.1777598049       -4.5117142332
 C         2.8920985085       -0.1957202332       -5.8062952764
 C         1.3573018454        0.4295375074       -6.0961194975
 O         1.3115235752        1.5914390164       -6.4166162772
 C         0.1568039877       -0.3675783804       -5.7258745481
 C        -1.0849242139        0.5792793713       -5.7679265445
 C        -2.3581548364       -0.3200688076       -6.0175643306
 O        -2.1925709081       -1.3787065249       -6.5543667284
 C        -3.7936331083        0.1183860336       -5.4620937017
 C        -4.7558840861        0.2778479778       -6.7561371744
 O        -4.9024671247       -0.5893942532       -7.5679586267
 C        -5.4316852167        1.7280462820       -7.0298221107
 C        -6.6971103757        1.5748199777       -7.9007425518
 C        -7.5622833873        0.4371218575       -7.4288833037
 O        -7.8229378432        0.3791287455       -6.2472112524
 C        -8.1490297511       -0.6321595598       -8.3977826984
 C        -7.5641336052       -2.1039075540       -8.0801187313
 O        -7.5373490061       -2.9175100550       -9.0027396386
 C        -7.1744254091       -2.6180456917       -6.6565227834
 C        -7.0255883095       -4.1434622039       -6.6904124124
 C        -5.9471263912       -4.7129887442       -5.7885520503
 O        -4.8162659652       -4.2322043642       -5.7731929372
 C        -6.2978586237       -5.9346671243       -4.9829195763
 C        -7.6153338763       -5.5546328413       -3.9924857164
 O        -8.6842029574       -5.4161599401       -4.4858093145
 C        -7.4210987709       -5.2809695708       -2.5296641550
 C        -8.7006208311       -4.9148477355       -1.8398926021
 C        -9.1639747780       -3.6053040395       -2.5450637534
 O        -8.4945252305       -3.0645926049       -3.3951040006
 C       -10.6044530411       -3.1411842888       -2.2255219673
 C       -10.3059338797       -2.3938493890       -0.8127832919
 O        -9.4824738570       -2.8082301962       -0.0397468247
 C       -11.2546911293       -1.2766256819       -0.4207836685
 C       -10.5517844673        0.0341102920        0.0062499334
 C        -9.3833062249        0.2710705768       -1.0536080248
 O        -9.1130077032       -0.6629516815       -1.8049045655
 C        -8.5135136962        1.5580562288       -0.8548696248
 C        -7.6940256031        1.8041391299       -2.3408041365
 O        -6.4648055216        1.8856536541       -2.3848176682
 C        -8.4994216838        1.9677540293       -3.5594814472
 C        -9.4642144534        2.7966519836       -0.7619387147
 C        -7.4863721153        1.5449605156        0.2800533810
 C       -11.2962530930       -2.2438717007       -3.2695736375
 C       -11.4832364007       -4.3878185162       -1.7399903393
 C        -6.7063552704       -7.1351742715       -5.8999366306
 C        -5.1570302992       -6.4082143910       -4.0643847640
 C        -9.6502252904       -0.6669128813       -8.2180680764
 C        -7.9638761794       -0.4189198602       -9.9546913684
 C        -4.4119318551       -1.1267968167       -4.6618860446
 C        -3.7296991751        1.2862969725       -4.4770384808
 C         3.3798827375        0.4265896409       -4.5032572369
 C         3.8009039003        0.2778487001       -6.9650791876
 C         0.0557296519       -5.7357222256       -5.6436909736
 C         0.9575473760       -6.5044156047       -7.9231765942
 C        -4.8837433979       -3.9048579551      -12.0283289859
 C        -5.7555873740       -6.1346437761      -11.2708815783
 C        -1.4346180125       -5.8183220906      -17.7348929560
 C        -0.1088866075       -4.4340529952      -15.9688907721
 C        -4.2355934664        0.4750412468      -20.8643135300
 C        -1.7711432200        0.5426330701      -21.3686879961
 C         0.1484624309        5.9714323407      -17.9532602136
 C         0.8682518865        5.9040028895      -20.5163531036
 C         2.2742495622        0.9845569167      -16.3049302806
 C         4.5667324637        1.3062759198      -17.2803846970
 H         5.2017576268       -1.1254732237      -18.6626064793
 H         4.1579355940       -2.4571373012      -18.6836546911
 H         4.8885661942       -1.9359320277      -17.0883182039
 H         4.0001157434        2.1764241607      -20.4585172463
 H         3.8131928172        2.9307543346      -18.9659337673
 H         1.3298874674        2.5573793921      -20.8296515553
 H         2.4406041504        3.8264995173      -20.9848135114
 H        -2.5003028077        4.6513428913      -18.0742852507
 H        -1.1667723294        3.5164670863      -17.5748355370
 H        -3.4193769934        3.2085650396      -19.6655796199
 H        -3.7556860980        2.6963517087      -18.0829977292
 H        -4.6579036751       -1.5961938447      -18.9901097334
 H        -3.6740216683       -1.1492780473      -17.7157154578
 H        -3.0753241796       -3.7962745770      -19.2242516388
 H        -3.9360804824       -3.5492449783      -17.5807345603
 H        -1.4320126206       -6.0680744136      -14.3207340877
 H        -2.4525776447       -7.0475598183      -15.4911231764
 H        -3.7498792096       -7.5266974909      -13.5866617786
 H        -4.4698909167       -5.9554777824      -14.1034142387
 H        -3.6477845665       -7.1470127915       -9.4062904974
 H        -3.8213541737       -5.7534290810       -8.1322123502
 H        -1.4461624568       -5.3211537434       -9.7559661283
 H        -1.2608912141       -6.7289140169       -9.0107224397
 H         2.8966090244       -4.7532239900       -7.2832475481
 H         2.3826753601       -4.2618634955       -5.6796323520
 H         2.2714039989       -2.0593718163       -7.6540613726
 H         3.9185856775       -2.4554600397       -7.2020194732
 H         0.2348479232       -0.8140070482       -4.6925738145
 H         0.0303450429       -1.2738623079       -6.3150495909
 H        -1.0290742333        1.2125663546       -6.6802581276
 H        -1.0409265697        1.2609095340       -4.9210895711
 H        -4.8078371578        2.3623657855       -7.6020192088
 H        -5.5889822370        2.1975081335       -6.0739323915
 H        -6.5026377577        1.4275900645       -8.9057378320
 H        -7.1288192231        2.5829222215       -7.7394386538
 H        -7.8691599766       -2.3229125197       -5.8682481958
 H        -6.1354005896       -2.1914694678       -6.3689614503
 H        -6.8339980005       -4.5068329511       -7.6902346110
 H        -7.9892779945       -4.4317231491       -6.4269383737
 H        -6.6018928794       -4.5431783330       -2.3563681134
 H        -6.8655916720       -6.0916495212       -2.0065980327
 H        -8.5330036783       -4.7447874656       -0.7885804784
 H        -9.4614731411       -5.6731738679       -1.8419804423
 H       -11.9736160750       -1.7459056353        0.2894507417
 H       -11.9671220175       -1.2057121314       -1.2226094364
 H       -10.1415660203        0.0247502050        1.0488614702
 H       -11.2459708581        0.9008724088        0.0034895742
 H        -8.4711687521        1.1107902208       -4.1926789227
 H        -8.0119728549        2.7260502069       -4.1541798980
 H        -9.5525630753        2.0058838721       -3.4495293812
 H        -8.9380161564        3.7307901675       -0.7395938617
 H        -9.9302010612        2.7007351049        0.1792485750
 H       -10.1943939724        2.8076912804       -1.5217971832
 H        -7.9408337714        1.7918701613        1.1744645141
 H        -6.8307568015        2.3948972741        0.0291786594
 H        -7.0035706856        0.6098005438        0.1981071388
 H       -11.0729579922       -2.7208148225       -4.3303479313
 H       -10.7112492944       -1.3338625259       -3.3564048615
 H       -12.3664905131       -2.1388904054       -3.0795886681
 H       -12.5360857138       -4.1209472352       -1.4606360106
 H       -11.1347051890       -4.7591301623       -0.7404258000
 H       -11.6047858721       -5.2518621981       -2.4607322450
 H        -7.7151849010       -6.8887002006       -6.3400329785
 H        -6.8399737592       -8.0721071633       -5.4632675833
 H        -5.9603357036       -7.2858373000       -6.7518534265
 H        -4.4259666135       -6.8636469440       -4.6991709140
 H        -5.6183329267       -7.1627565539       -3.3561353853
 H        -4.6650694492       -5.6732469254       -3.4033942505
 H        -9.9744772130       -1.5543247898       -8.7472978524
 H        -9.9942703632        0.2027570180       -8.7021493330
 H       -10.1249609493       -0.6848805271       -7.2875449778
 H        -6.8476157202       -0.2790347968      -10.2085054407
 H        -8.6194795607        0.4225514845      -10.2684590732
 H        -8.3082903576       -1.2365299217      -10.5616508660
 H        -5.4914708748       -0.8904916229       -4.4373252068
 H        -3.9027255718       -1.0039047969       -3.6765692994
 H        -4.2120310634       -2.0609727046       -5.2479260720
 H        -2.8723260137        1.3798844523       -3.7321884199
 H        -4.6127667066        1.3142137978       -3.8445519643
 H        -3.7078269769        2.2360709550       -4.9885174942
 H         4.1952143741       -0.0468862749       -4.1227010833
 H         2.6039972906        0.4054873158       -3.8114891514
 H         3.6123924513        1.5069902170       -4.5567592587
 H         3.2212797660        0.5276428009       -7.8902692310
 H         4.4966410606       -0.4200303377       -7.2532185294
 H         4.3655764636        1.1563153554       -6.7272315435
 H        -0.8369254380       -6.2908633833       -5.3654195671
 H         0.0960188981       -4.7349378276       -5.1830942371
 H         0.9170632298       -6.3420472900       -5.3909614795
 H         1.5159994309       -5.8971397761       -8.7825336403
 H         0.4971066134       -7.4057646114       -8.3010569984
 H         1.7631730482       -6.7379900516       -7.1615060903
 H        -5.1609031084       -3.9007898310      -13.0369222368
 H        -4.0280097207       -3.2067782072      -11.8765666526
 H        -5.7557939008       -3.5203862979      -11.5168001940
 H        -6.0882717662       -6.4888159794      -10.2924126122
 H        -5.6522953299       -7.0859754540      -11.8786190265
 H        -6.5768215242       -5.5841740500      -11.7678657839
 H        -1.2382790546       -5.6027267822      -18.8002355579
 H        -2.3550202511       -6.3580654927      -17.5911439674
 H        -0.7015886513       -6.5426435119      -17.5963781249
 H         0.4891563698       -3.6855608959      -16.4262315803
 H         0.4249926337       -5.4043148847      -15.9877374033
 H        -0.3197952963       -4.2058275212      -14.9492763570
 H        -4.2828955581        0.0450278005      -21.8463276973
 H        -4.3437596979        1.4815228058      -21.0881695069
 H        -5.1150917757        0.2200926698      -20.2160322319
 H        -1.6804742091        1.5701256025      -21.9504064515
 H        -1.8573288947       -0.1851060504      -22.1604827650
 H        -0.7681033657        0.4493637874      -21.0104864739
 H        -0.1677295109        5.3184425139      -17.2144319313
 H        -0.6485600092        6.6027988525      -18.1041246986
 H         1.1129397300        6.4460890157      -17.8218892852
 H         1.2473748702        5.1386544345      -21.2034306878
 H         1.5600759338        6.7266640659      -20.2323304136
 H         0.0057733297        6.4139150165      -21.1093846974
 H         2.7031868589        0.4605490494      -15.4649127408
 H         1.2128936142        0.7210201148      -16.4480272588
 H         2.4350868999        2.0300819249      -16.2202522330
 H         5.1581509370        1.5034965904      -18.1811649977
 H         4.9613740627        0.7160339621      -16.4572464864
 H         4.3065770364        2.2604247495      -16.8060046092
 Na        0.0963409557       -0.7853843277      -18.1892606558
 Na       -3.7126007282       -2.9216615028       -7.4919071470
