232

 C       -18.3267813556       -4.8302143931       -5.0573798926
 C       -18.5422151644       -5.7793386194       -3.9035135832
 O       -17.8591346664       -6.7505935639       -3.7335039103
 C       -20.0380560430       -5.7968389159       -3.1419287911
 C       -19.8281226543       -6.1008012441       -1.6729178628
 O       -19.6217065612       -7.2697610595       -1.3636648605
 C       -20.0521823392       -5.0352887657       -0.5284637648
 C       -18.8551752856       -5.1776463123        0.4543739442
 C       -17.5386467024       -5.0676485358       -0.4138555273
 O       -17.5298382140       -4.8243288898       -1.5839040086
 C       -16.0947639125       -5.3874789335        0.2994648771
 C       -15.9107186147       -6.9066371734        0.1567457936
 O       -16.7867359397       -7.6323670645        0.6314736485
 C       -14.7735267726       -7.5436266719       -0.6929317721
 C       -14.6912049084       -9.0682245636       -0.4490780153
 C       -14.9211118043       -9.7955452142       -1.7866229538
 O       -16.0106512737       -9.8353396408       -2.3301780442
 C       -13.8236191987      -10.4878654002       -2.5244776145
 C       -13.3092352796       -9.3759626011       -3.6597310180
 O       -13.8135631011       -8.2789155474       -3.7231817919
 C       -12.2715844639      -10.0115274426       -4.6963776216
 C       -11.2960041673       -8.8756663191       -5.3278073624
 C        -9.8475274962       -9.4002011298       -5.6533022995
 O        -9.3489925937      -10.2645844125       -4.9803815328
 C        -9.0276971118       -8.8426302296       -6.9110637532
 C        -8.7290093244       -7.2647745942       -6.7366682415
 O        -9.2126967162       -6.7126417371       -5.7434015559
 C        -7.7673394483       -6.5608318800       -7.6347319817
 C        -8.0708474750       -5.0424341439       -7.6495921782
 C        -8.7407439874       -4.3914083865       -8.9491239540
 O        -9.2295629184       -5.1196178928       -9.8341843982
 C        -8.6308052120       -2.8515269265       -9.2526879426
 C        -7.3290971130       -2.7650393046      -10.1334823585
 O        -6.4902088825       -1.9283595287       -9.8639120464
 C        -7.2502441009       -3.5355238153      -11.4297361975
 C        -5.8268679717       -3.6626016438      -11.9901137916
 C        -5.1399654808       -2.3330411680      -12.5740993271
 O        -5.3662698380       -1.2933273560      -12.0110882965
 C        -4.0049194289       -2.4254097021      -13.7255704661
 C        -2.7170286397       -3.0027451235      -13.1308365810
 O        -2.7235615584       -3.6365836187      -12.0886438864
 C        -1.4581730346       -2.6354856791      -13.8721493839
 C        -0.1832683997       -3.1581347918      -13.1784678142
 C         0.7783216543       -2.0353062728      -12.6546372994
 O         0.9274290475       -0.9903156439      -13.3137864562
 C         1.6848808009       -2.3061986629      -11.3773358218
 C         2.6531757610       -1.0114298505      -11.1374397451
 O         3.6704870421       -0.7885622744      -11.7736670240
 C         2.0003946676        0.0311370035      -10.3309225424
 C         2.8242850557        1.2829736564       -9.9786539881
 C         2.6724574300        2.4792233548      -10.8712323829
 O         1.7958450581        2.6734758381      -11.7101527137
 C         3.5869105763        3.7163559318      -10.4387351000
 C         4.2408324884        4.5212828070      -11.6043278394
 O         5.3463364229        4.1638872964      -11.9197547976
 C         3.3334422148        5.5632387024      -12.1867809146
 C         4.1044238735        6.9687827586      -12.3968746435
 C         5.2097732891        7.0996301693      -13.3987727311
 O         5.3555361656        6.3066044592      -14.3422010291
 C         6.2670754299        8.1354411966      -13.2667903476
 C         7.5470282123        7.5715448606      -14.1468816495
 O         7.7246556584        8.0094648795      -15.2818877319
 C         8.5858785184        6.5697250926      -13.5223929900
 C         9.5675906680        6.1589396226      -14.7578717572
 C         8.6479788583        5.6734749281      -15.8700824991
 O         7.6210075598        5.0764433997      -15.7522798416
 C         9.1372735228        5.9289894301      -17.3786190398
 C         9.7172041905        4.5340324030      -17.9725907640
 O        10.0053661257        3.6073853993      -17.2025982203
 C         9.9779154863        4.4013574201      -19.5482496415
 C         9.8834580306        2.9806731910      -20.0137442571
 C         8.4031671449        2.6773062190      -19.8994694593
 O         7.6018435932        3.5418735108      -19.7120347258
 C         7.8821311218        1.1541615463      -20.0359515608
 C         8.0537551939        0.4821890593      -18.6655267420
 O         8.9603342256       -0.3440042836      -18.5163823783
 C         7.1073258171        0.7821659932      -17.4448140905
 C         7.9710763592        0.8090264417      -16.2262025183
 C         7.2613097450        1.4411159255      -14.9496416385
 O         7.5418196861        2.5232048702      -14.4921573247
 C         6.1205255278        0.6234792132      -14.1907291120
 C         4.7703756097        1.2484118197      -14.7480405852
 O         4.6396186251        2.4610262207      -14.7192267228
 C         3.5639966871        0.4112284104      -14.9616814639
 C         6.2258890373       -0.9083125590      -14.4465516559
 C         6.1661004843        0.9068672290      -12.7134562927
 C         6.2951317347        1.3496656016      -20.4978321118
 C         8.6835666270        0.3680056460      -21.0915231395
 C         7.8903534641        6.4997422128      -18.0786743433
 C        10.2736005494        7.0422321820      -17.5340902506
 C         5.9358467944        9.6138562809      -13.6952800721
 C         6.8078505049        8.0586226754      -11.7804152692
 C         2.6050064778        4.5488880510       -9.5939703798
 C         4.8323388192        3.1785329074       -9.5630151524
 C         0.7264238596       -2.5949212029      -10.1454263678
 C         2.6421375871       -3.6167405668      -11.6389431242
 C        -4.5418337170       -3.3727028472      -14.9384905097
 C        -3.7798989870       -0.9261290374      -14.1623109529
 C        -9.8842514533       -2.4596305597      -10.0691852431
 C        -8.4846537183       -1.9071738858       -7.9789120451
 C        -7.6583691018       -9.6014000945       -7.0188147507
 C        -9.7432296273       -9.1600938815       -8.3406160639
 C       -12.5387100817      -10.6238318050       -1.6111490413
 C       -14.2473852058      -11.8387687148       -2.9774013149
 C       -15.0506306709       -4.6569979231       -0.5119230608
 C       -16.0767462218       -5.0060553764        1.7640137042
 C       -20.8099014492       -4.4700754061       -3.2664644123
 C       -20.7862118958       -6.8857077651       -3.9756623503
 H       -17.7667459990       -4.0076247132       -4.5523755226
 H       -19.1734963597       -4.3567906654       -5.4450860092
 H       -17.7103017625       -5.3843909928       -5.7778347807
 H       -20.9928980253       -5.3643266464       -0.0712019604
 H       -20.1126494669       -3.9985210184       -0.9491431629
 H       -18.8665487912       -6.0966912157        1.0870532778
 H       -18.8952711207       -4.3641072589        1.1857483889
 H       -13.7788210996       -7.1270468590       -0.5323559559
 H       -14.9191376442       -7.3968989607       -1.7972851136
 H       -15.4607693437       -9.2930329232        0.2008595168
 H       -13.7057344724       -9.2971140314        0.0549229184
 H       -12.8808217343      -10.4921656255       -5.4834092250
 H       -11.5831951753      -10.8057647513       -4.2404536811
 H       -11.0389644682       -8.0523240051       -4.6691777819
 H       -11.6247259015       -8.4200609574       -6.2699475832
 H        -7.6417272954       -7.0300153735       -8.5582893575
 H        -6.8946773926       -6.5320091720       -7.0414735166
 H        -7.1313718209       -4.4929689337       -7.3428548961
 H        -8.7625629810       -4.9339651098       -6.7020432954
 H        -7.9641895934       -3.1524624071      -12.1477212986
 H        -7.5843442963       -4.6330754810      -11.2680717590
 H        -5.8856691968       -4.3998527645      -12.7381778548
 H        -5.1343716058       -3.9871393261      -11.1008367771
 H        -1.4756799480       -1.5323848952      -13.9300014459
 H        -1.5344749872       -2.7879069052      -14.9130502791
 H         0.4736357219       -3.7342352526      -13.7974840252
 H        -0.6615720733       -3.8590069387      -12.4275917184
 H         1.7798486481       -0.2545474005       -9.2573434607
 H         1.0099223622        0.2813233175      -10.7876017217
 H         3.8770324948        1.0791465875       -9.9597916419
 H         2.4722101312        1.5184380890       -8.9390198837
 H         2.4308960633        5.7669175804      -11.6292284627
 H         3.0166739381        5.2591671378      -13.2194404319
 H         4.4775762341        7.1700383046      -11.4183926043
 H         3.2629459937        7.6847509127      -12.6339413897
 H         8.0194950961        5.6602910147      -13.2170549142
 H         9.1077023706        7.0980731221      -12.7494441843
 H        10.2678775437        5.3497272601      -14.2881201157
 H        10.1358873548        6.9409869167      -15.1257121905
 H        10.9847492417        4.8333390882      -19.6520607604
 H         9.2514587971        5.0669561646      -20.0991592860
 H        10.4845030593        2.2551575081      -19.4003493573
 H        10.2074399712        2.9270313684      -21.1045384143
 H         6.2121266844        0.2144372954      -17.4531924106
 H         6.6565751680        1.6978405827      -17.7684757453
 H         8.7568188163        1.5382783382      -16.4862847884
 H         8.3117375825       -0.2346664685      -16.0457390838
 H         3.9086510832       -0.5645891060      -15.3083241491
 H         3.1092368751        0.8903346933      -15.8362227447
 H         2.9150440216        0.2029484995      -14.1754049497
 H         5.3546392517       -1.2984301696      -13.9637080821
 H         6.9897025939       -1.4193945320      -13.9494705260
 H         6.3134971679       -1.1920592772      -15.4690011499
 H         5.3942720755        0.5081190849      -11.9873253747
 H         6.4150537922        1.8743098939      -12.3994549380
 H         7.0679584252        0.4429760347      -12.3659177630
 H         5.7128476437        0.3828994065      -20.6364188473
 H         6.3424223300        1.8825818918      -21.4769138062
 H         5.9332574609        1.8882701741      -19.5779739243
 H         8.2090089130       -0.6022226892      -21.3088197239
 H         9.6760729483        0.0270320967      -20.7589883859
 H         8.8544144804        0.9687841336      -22.0187215399
 H         7.4085899833        7.1812494448      -17.3973787047
 H         7.2546447973        5.6229706412      -18.2980089510
 H         8.1141252390        7.1660636847      -18.9525307342
 H        11.0602451802        6.8236103123      -16.8407935177
 H         9.8168180126        8.0874196263      -17.3730580806
 H        10.6463362507        7.1491840802      -18.6067326412
 H         6.7931572611       10.1946209979      -13.9333445471
 H         5.4108120735       10.1275807866      -12.9020051354
 H         5.2485837115        9.5016623921      -14.5427604076
 H         7.7646628738        8.5147344940      -11.6148017275
 H         6.8735325927        7.0062995477      -11.5563475985
 H         6.0931025931        8.4314234208      -11.0976770407
 H         2.3493537907        4.1107192589       -8.6206671351
 H         1.5979560888        4.7589290107      -10.1390576224
 H         3.0312370007        5.5620271334       -9.3176975350
 H         5.3682762335        4.0963674453       -9.3272456749
 H         5.5529904031        2.5861447967      -10.1305083331
 H         4.6311038890        2.6141303643       -8.6753757185
 H        -0.0493139545       -1.7501225649      -10.0404461140
 H         1.4083975459       -2.4411694308       -9.3110864228
 H         0.4576386198       -3.6609095521      -10.1291096422
 H         1.9520159243       -4.4052232384      -11.9225791182
 H         3.1112800569       -3.9532410912      -10.7050718304
 H         3.4005293739       -3.4208433475      -12.3856321110
 H        -4.9979532102       -4.1938262478      -14.4590366563
 H        -3.7842048445       -3.6548589266      -15.7087191771
 H        -5.2187082833       -2.7533969507      -15.4819894900
 H        -3.4586223598       -0.7511646018      -15.1710648944
 H        -2.9979450802       -0.5375632062      -13.5881687308
 H        -4.6796528204       -0.3425865572      -13.9930877179
 H       -10.6737404361       -1.8921420673       -9.6302386756
 H       -10.4135381568       -3.2700831941      -10.4520979877
 H        -9.5716198980       -2.0445007859      -11.0423651750
 H        -8.9276129399       -2.4354492836       -7.0937331881
 H        -8.9598748834       -0.9497380822       -8.1219234467
 H        -7.4791137481       -1.5469138238       -7.6976281494
 H        -7.8311307400      -10.4702806213       -7.6228936263
 H        -7.2932710441       -9.9283483227       -6.0743497087
 H        -6.9237254721       -8.9701760676       -7.5307002717
 H       -10.1707364480      -10.1990729463       -8.1973649819
 H        -8.9502395981       -8.9291769629       -9.0057159040
 H       -10.5485394146       -8.5005639831       -8.6318811308
 H       -11.9399365638       -9.7295194186       -1.4765598219
 H       -11.7782026170      -11.2315276138       -2.0403480418
 H       -12.6827904447      -10.9676726544       -0.5637865182
 H       -15.2073289263      -11.7928477213       -3.6047506933
 H       -14.5894490340      -12.4637163199       -2.1544644725
 H       -13.5233361935      -12.4721175036       -3.4788318557
 H       -15.0681007420       -4.9738713515       -1.5966446373
 H       -14.0271921318       -4.8378156365       -0.3367855011
 H       -15.1542831769       -3.6060431136       -0.5559368619
 H       -16.8256614992       -5.5485432893        2.3575764042
 H       -16.1792130361       -4.0413904560        1.9745100740
 H       -15.0657500157       -5.1987113225        2.1054665972
 H       -20.1852596969       -3.7060379976       -2.9452195806
 H       -21.7350574781       -4.5533086500       -2.7696095302
 H       -21.0695572586       -4.2859098086       -4.4076952591
 H       -21.7424116937       -7.0539083507       -3.5211094450
 H       -20.1952666340       -7.8281181906       -4.0649839091
 H       -20.9880229519       -6.4602005610       -4.9977572828
 Na      -17.8217225328       -8.4951859416       -2.1105247415
 Na        6.1617534586        4.1949602921      -14.2045582983
