232

 C         4.4174843170       -1.2590778375      -17.3691715888
 C         3.0572874809       -0.5791944225      -17.6391141020
 O         2.0706893145       -1.2343160257      -17.7649889266
 C         2.8929973815        1.0162025312      -17.7136719845
 C         2.1861969646        1.4478022909      -18.9978472381
 O         1.3066558884        0.7215765484      -19.4391986967
 C         2.7884810226        2.4458687031      -19.9769781766
 C         1.6413438887        3.4327828514      -20.3668881375
 C         0.9579600409        4.0990111066      -19.2678375777
 O         1.1148642122        3.6156135481      -18.1594698820
 C        -0.0569665735        5.2422347473      -19.4996785389
 C        -1.4304323094        4.3868401859      -19.8332819662
 O        -1.6296120295        3.9501825479      -20.9187236264
 C        -2.2722544819        3.9594389492      -18.3659912687
 C        -3.1587851431        2.6983818680      -18.5643453114
 C        -2.1863622783        1.4871676095      -18.8732102895
 O        -1.2737464362        1.3813041717      -18.0878120352
 C        -2.5659776164        0.4087106600      -20.0077415170
 C        -2.2417375394       -1.0064609425      -19.4914527788
 O        -1.4680326992       -1.7729344058      -20.0649385233
 C        -3.1946149638       -1.6618053341      -18.4389278618
 C        -2.8960856010       -3.1285238484      -18.1484287215
 C        -1.8040916289       -3.2656275570      -17.1049330112
 O        -1.0974790714       -2.3394060238      -16.7682657641
 C        -1.5661379088       -4.6550398141      -16.4084625388
 C        -2.9663363167       -5.1831475844      -15.6429737956
 O        -3.9852528463       -4.5932877971      -15.7736742564
 C        -2.8379589717       -6.5692271921      -14.8794367033
 C        -3.8495121945       -6.7159759012      -13.7125113369
 C        -3.2608955473       -6.1438029956      -12.4210499172
 O        -2.0416311040       -6.0678411169      -12.2714175904
 C        -4.2430799690       -5.5021892708      -11.5064130751
 C        -3.6397862845       -5.2168765074      -10.1332773749
 O        -3.9115067848       -4.1250403042       -9.5247946869
 C        -2.8007418201       -6.2761222826       -9.3824791485
 C        -1.2460718092       -5.7220041842       -9.2622397802
 C        -1.0548303583       -5.3261632684       -7.7207197098
 O        -2.0172340972       -4.8989937034       -7.1471751531
 C         0.3395631332       -5.7027490973       -6.9908586706
 C         1.0759087271       -4.2963833142       -7.0878626954
 O         0.4022400061       -3.3166898473       -7.3483155644
 C         2.5811895775       -4.2146151158       -6.7756830333
 C         3.1562988237       -2.7910926827       -7.0327021929
 C         2.7992624922       -1.8637929183       -5.7628963886
 O         2.4808641532       -2.4674950007       -4.7600430282
 C         2.9370178554       -0.3004312126       -5.8023547041
 C         1.5040466756        0.3455159650       -5.9040594934
 O         1.3555532896        1.4230565841       -6.4043011139
 C         0.3387243807       -0.5325643264       -5.4251312186
 C        -0.9612460795        0.2365999013       -5.3336513244
 C        -2.1912535117       -0.5247617331       -5.8305808030
 O        -2.0739313492       -1.4977167794       -6.4891462571
 C        -3.6696821726        0.1820691020       -5.5765929085
 C        -4.5763636877        0.1693355882       -6.8354885860
 O        -4.5406340131       -0.7538668750       -7.5802945879
 C        -5.5573911041        1.3762618682       -7.2465297909
 C        -6.6559720909        0.9657907367       -8.2158940061
 C        -7.8542081846        0.2734019217       -7.5658389581
 O        -8.0732826233        0.3977717480       -6.3497833403
 C        -8.7341245484       -0.6726681942       -8.3864512552
 C        -8.0469628636       -2.0818123388       -8.4108779438
 O        -7.8804800336       -2.5454859936       -9.5168639072
 C        -7.7667716995       -2.6842064795       -7.0202495512
 C        -7.5439084840       -4.2507047403       -6.8983259057
 C        -6.3078560903       -4.4906570892       -5.9867559570
 O        -5.3545510078       -3.7043017090       -5.9967446207
 C        -6.1484906862       -5.7878040751       -5.2227138396
 C        -7.3097343668       -5.9707894770       -4.0778731966
 O        -8.3754819135       -6.3774781929       -4.5017230389
 C        -7.0890235544       -5.5629289532       -2.6522503877
 C        -8.4218244937       -5.2668081039       -1.8998696355
 C        -9.1241075011       -3.9897475103       -2.4710561020
 O        -8.6106953508       -3.5379224328       -3.4930698676
 C       -10.3460950929       -3.3095557734       -1.8375846438
 C       -10.0696903028       -2.3269899524       -0.6377180787
 O        -9.2003506927       -2.5757667258        0.1775405378
 C       -10.9796946521       -1.0639632772       -0.3630705498
 C       -10.1940901413        0.0740851687        0.1845478440
 C        -9.3280048209        0.7980880833       -0.9830927918
 O        -9.5028882113        0.5326265065       -2.1463119824
 C        -8.2777507762        1.9993380265       -0.7923225496
 C        -7.6309343472        2.3064911425       -2.2222716725
 O        -6.4458050754        1.9917901854       -2.4848970040
 C        -8.4818743303        3.0295664694       -3.3159259390
 C        -9.0508915253        3.1175071380       -0.0689946393
 C        -7.0715494474        1.4900562391        0.1434533599
 C       -11.0590722624       -2.6702379433       -3.0607136581
 C       -11.3769457024       -4.3750407403       -1.1492097858
 C        -6.2981836384       -7.0000655669       -6.1618504877
 C        -4.7898672716       -5.7825078401       -4.4113125450
 C       -10.1289328979       -0.9238679825       -7.7443893990
 C        -8.9208096317       -0.2140638825       -9.8500430075
 C        -4.2754934755       -0.7846957530       -4.4286942877
 C        -3.5945231311        1.5748110983       -4.9248566621
 C         3.3855924023        0.2972499503       -4.4526382062
 C         3.8836772981        0.2136566910       -6.9571774065
 C         0.0000198661       -6.0168681325       -5.5370836652
 C         1.0396094522       -6.9104215119       -7.5329206475
 C        -4.6487864936       -4.2280804630      -12.2679344925
 C        -5.4105787268       -6.4604831238      -11.2404500840
 C        -1.3430340407       -5.7092891255      -17.5489870278
 C        -0.4061380084       -4.4708251292      -15.4480864077
 C        -4.1100482573        0.5697008564      -20.3429503823
 C        -1.8609635312        0.6144889822      -21.3450911894
 C        -0.1013568896        6.1201467343      -18.2265349810
 C         0.4026921345        6.1297347470      -20.7032735841
 C         2.1719942974        1.4710082935      -16.4324544132
 C         4.3410370879        1.6947723645      -17.6497483745
 H         4.6609795387       -1.9777667964      -18.1404631688
 H         4.3489111795       -1.6825777437      -16.3436437512
 H         5.2878504070       -0.6018346261      -17.3806790078
 H         3.0828606327        1.9661000309      -20.8963751027
 H         3.6237668813        3.0124634813      -19.5894430909
 H         0.9000212988        2.9118254746      -20.9460428940
 H         2.0923236910        4.2878107655      -21.0194922514
 H        -2.8935708636        4.7752575207      -17.9791395627
 H        -1.4166395661        3.7939125177      -17.6808988210
 H        -3.9068015114        2.8832064714      -19.3498093009
 H        -3.7915109673        2.3408631669      -17.7372988227
 H        -4.2610797859       -1.5910003961      -18.7705708224
 H        -3.0549134502       -1.0502659812      -17.5039023643
 H        -2.6915661955       -3.5574920036      -19.0864626474
 H        -3.8887303673       -3.5089207426      -17.7112539457
 H        -1.7872780382       -6.6771605141      -14.6183123525
 H        -3.1228534899       -7.2287793914      -15.6203244877
 H        -3.8695374248       -7.7850620067      -13.6493797948
 H        -4.7237688384       -6.0806896794      -14.0501720996
 H        -2.7386506641       -7.2102177377       -9.9422976309
 H        -3.1233624315       -6.3218049372       -8.3219891325
 H        -1.1457697205       -4.8526038884       -9.8997303578
 H        -0.6143368559       -6.4972957678       -9.6841234993
 H         3.3609448404       -4.9275195430       -7.2542618042
 H         2.7775437907       -4.2928900837       -5.7108096202
 H         2.9375166336       -2.3118537093       -8.0427951400
 H         4.2436830784       -2.8987210757       -6.9798524337
 H         0.5022604425       -1.0001531927       -4.5028422695
 H         0.2327212045       -1.4201442598       -6.1248480245
 H        -0.7916589491        1.2394515257       -5.7643969533
 H        -1.1858829440        0.4077174530       -4.3127563586
 H        -4.8608676398        2.1816568832       -7.5045103213
 H        -6.0179244151        1.6094688270       -6.2605955078
 H        -6.2736934521        0.4865763742       -9.1959433934
 H        -7.1354884217        1.8421566513       -8.6647611406
 H        -8.4576074713       -2.2386202566       -6.2714375911
 H        -6.8520294177       -2.1863861992       -6.7299402608
 H        -7.2658364693       -4.5633562235       -7.8812736195
 H        -8.5196542414       -4.6357222276       -6.5719439552
 H        -6.2591829456       -4.8545164386       -2.5866681292
 H        -6.5390327270       -6.3859685959       -2.1673962403
 H        -8.2259544308       -5.1628947965       -0.8493726461
 H        -9.1265284210       -6.0680248140       -2.0351781409
 H       -11.6382952254       -1.4293543417        0.4847740928
 H       -11.6840174797       -0.8648825591       -1.2141155313
 H        -9.5470885155       -0.1791617369        1.0040475096
 H       -10.8462464575        0.8362463397        0.6352419796
 H        -9.5428664741        3.2093676439       -3.1012887610
 H        -8.5147648223        2.6045813565       -4.3440806808
 H        -8.0787591959        4.0119942272       -3.5677763346
 H        -8.4419559541        3.9977909989       -0.0428941560
 H        -9.2969178686        2.8802691487        0.9806169400
 H       -10.0297091817        3.3439634605       -0.5888605996
 H        -7.4921887743        0.8260074541        0.8981434101
 H        -6.4618938364        2.3348033880        0.3989363204
 H        -6.4620935586        0.9651646636       -0.5464714888
 H       -11.1138719441       -3.3592171579       -3.9389837999
 H       -10.4973519246       -1.7484149700       -3.3354127069
 H       -12.1421422624       -2.4878637136       -2.7070545166
 H       -12.3859164312       -3.7999014195       -1.0310479258
 H       -11.0253147693       -4.8956053036       -0.2358045299
 H       -11.5934315420       -5.2067010567       -1.8524524595
 H        -7.3004886251       -7.4960906494       -6.1042018512
 H        -5.5433330012       -7.8227958416       -5.9477780452
 H        -6.1392526066       -6.7156023401       -7.2103712641
 H        -3.9210548118       -5.7257361946       -5.1178220659
 H        -4.6994118214       -6.6998292306       -3.8322512966
 H        -4.6820389493       -4.8484122163       -3.9021908020
 H       -10.6354154604       -1.6939510782       -8.2673394426
 H       -10.7464381189       -0.1050672234       -7.6956078599
 H        -9.9173540817       -1.2399166538       -6.7327389186
 H        -8.0510356875       -0.0151738171      -10.4884766457
 H        -9.4137715408        0.7272812443       -9.8284695024
 H        -9.6079325721       -0.9831817668      -10.3436536861
 H        -5.2870730663       -0.5450637875       -4.3496235662
 H        -3.6134830477       -0.7370152298       -3.5058402661
 H        -3.9903761553       -1.7353377968       -4.8520029583
 H        -2.9105953923        1.6228516213       -4.1369860518
 H        -4.5345314551        1.9978076730       -4.6153583708
 H        -3.2983551578        2.3522879562       -5.6720755449
 H         4.2857406040       -0.0858475405       -3.9427161161
 H         2.6954526471        0.2175201040       -3.6444786722
 H         3.7479107325        1.3317527838       -4.7658724110
 H         3.5516482019       -0.0480483910       -7.8990410459
 H         4.8617805688       -0.3228590707       -6.8174000818
 H         4.0635229076        1.2895461197       -6.9190440943
 H         0.9362655961       -6.1518701941       -5.0442240510
 H        -0.5580777403       -6.9347657864       -5.4778400254
 H        -0.6291568982       -5.1424587973       -5.1740477495
 H         1.7374894403       -6.6846041615       -8.3439855963
 H         0.3829579461       -7.6085715189       -7.9328835255
 H         1.6701777633       -7.4368120870       -6.8123650688
 H        -5.1262393798       -4.5812997818      -13.1087790226
 H        -3.7921630031       -3.6623713502      -12.6781177011
 H        -5.3632862792       -3.5515666934      -11.8405893740
 H        -6.2386750149       -6.0747662746      -10.7139263104
 H        -4.9971055717       -7.3952659603      -10.8381599857
 H        -5.7971572400       -6.8353926749      -12.1854819316
 H        -1.7159956630       -6.6881637325      -17.3354447549
 H        -0.2511493975       -5.9761692438      -17.6405555736
 H        -1.8960185645       -5.5261129117      -18.5100910277
 H         0.3380698427       -3.9795400533      -16.0560887321
 H         0.0281316159       -5.3861189773      -15.1652718438
 H        -0.7216021177       -3.7973628102      -14.6948655821
 H        -4.4284847895       -0.3971038263      -20.7987819135
 H        -4.4127859016        1.4144508175      -20.9993711881
 H        -4.8997296082        0.5696676092      -19.5640327991
 H        -1.8469800975        1.6092487474      -21.7952695677
 H        -2.3724798352        0.0492872811      -22.1129176053
 H        -0.7382036605        0.4211103667      -21.3672102107
 H         0.1109185144        5.3066356341      -17.4620654015
 H        -1.0708903676        6.7123032372      -18.1760062950
 H         0.7262213016        6.7705345544      -18.1466982684
 H         0.1017389313        5.6920928847      -21.6620155245
 H         1.4769087997        6.0767865517      -20.8258245738
 H        -0.0788658720        7.0917755769      -20.5460655933
 H         2.9281385930        1.4966748045      -15.7294102388
 H         1.3735414021        0.7682302432      -16.2250585868
 H         1.6270567604        2.4317890990      -16.6078599946
 H         5.0476351168        1.3428757854      -18.4793639064
 H         4.8653076652        1.4468471891      -16.6919105942
 H         4.1688288913        2.7580179418      -17.6875019961
 Na       -0.0438336430       -0.5914515294      -17.8446342080
 Na       -3.5561449985       -2.8992301009       -7.5478050009
