232

 C         4.4075770440       -1.1768060630      -17.3581829914
 C         3.0907035089       -0.5235569480      -17.6520221047
 O         2.1180932612       -1.2510965353      -17.8993579214
 C         2.9814160673        1.0024331027      -17.6614517872
 C         2.2167015493        1.3572278200      -19.0803037326
 O         1.1454844798        0.7855873269      -19.3796312448
 C         2.6888666569        2.5009996185      -19.9747629832
 C         1.4738890243        3.3263111664      -20.4920215609
 C         0.8810202643        4.0627151599      -19.2742595705
 O         1.0000796528        3.7669979281      -18.0821986896
 C        -0.1381731331        5.2285807211      -19.4942790908
 C        -1.3530216108        4.3934053976      -19.7134507825
 O        -1.6644023641        4.0392542096      -20.8125716712
 C        -2.1109862689        3.9736642835      -18.5317891873
 C        -3.0501764768        2.7993842646      -18.7289833806
 C        -2.2951644693        1.4685886438      -18.8151927055
 O        -1.3072048894        1.3059061554      -18.1851596093
 C        -2.6587961593        0.4291989289      -19.9415248625
 C        -2.3900628563       -1.0322729519      -19.4959980055
 O        -1.4622109858       -1.6532686366      -19.9475786597
 C        -3.2805877375       -1.7055823713      -18.3052235472
 C        -2.7925088253       -3.1610315383      -18.1854171191
 C        -1.8260031284       -3.2990587971      -17.0391727467
 O        -1.0139672442       -2.4028138758      -16.7560283994
 C        -1.6520454728       -4.7040638572      -16.3506975871
 C        -2.9581000726       -5.2111169025      -15.6430892880
 O        -4.0661996099       -4.6476831882      -15.6755912128
 C        -2.8700577010       -6.6014918589      -14.8603578748
 C        -3.8243320099       -6.8743333028      -13.6574566355
 C        -3.1952065760       -6.1782519483      -12.4600469532
 O        -2.0017152838       -6.1154478720      -12.2355645269
 C        -4.2539639607       -5.5975797896      -11.5076721440
 C        -3.5452327022       -5.1634280175      -10.1385821731
 O        -3.6875427541       -4.0201125668       -9.6559473101
 C        -2.6325778384       -6.2429571826       -9.5314365557
 C        -1.2055595583       -5.6187703759       -9.2477248906
 C        -1.0959026465       -5.3653513028       -7.7746465315
 O        -1.9331370619       -4.7448767235       -7.1214079496
 C         0.2544194894       -5.6814832195       -7.0367098597
 C         1.0655008607       -4.3035602547       -7.0874785066
 O         0.4933617996       -3.2539965778       -7.3912692199
 C         2.5948895800       -4.3059911117       -6.9127129743
 C         3.1543426136       -2.8583342588       -6.9786033409
 C         2.8962087363       -1.9325347229       -5.7606538692
 O         2.6397675489       -2.4559740731       -4.6953266441
 C         2.9328138299       -0.4143291381       -5.7982063423
 C         1.4893953939        0.2327325100       -5.9731962523
 O         1.3224693741        1.3432834482       -6.4229845555
 C         0.2601600085       -0.5419390926       -5.3754739440
 C        -0.9867724605        0.3484271844       -5.2753955865
 C        -2.2808575211       -0.4336251314       -5.8609453147
 O        -2.1124754835       -1.5510069373       -6.2558231214
 C        -3.6717056575        0.1345765957       -5.6227553774
 C        -4.6571231847        0.0787122014       -6.8880834331
 O        -4.7016562843       -0.9243843912       -7.6093554238
 C        -5.5971760039        1.2949452193       -7.2550224574
 C        -6.6539632023        0.8596790978       -8.3004367831
 C        -7.8707615207        0.3329364040       -7.5813279005
 O        -8.0627026166        0.4429651472       -6.3941309448
 C        -8.8602164779       -0.6819445237       -8.3453415708
 C        -8.1618078233       -2.0999603459       -8.4281306136
 O        -7.9601675680       -2.6703957591       -9.4935470553
 C        -7.8192858768       -2.7069623916       -7.0574123678
 C        -7.4333594017       -4.2691208778       -6.9633951855
 C        -6.2367518235       -4.4396362493       -6.0556591814
 O        -5.3572850105       -3.6002133669       -5.9976367989
 C        -6.1548140190       -5.7937032807       -5.2124372756
 C        -7.3932601413       -5.9873169941       -4.1386259427
 O        -8.3599589311       -6.5553877391       -4.5112645632
 C        -7.1225356445       -5.5878611000       -2.6219137167
 C        -8.3920568424       -5.2502821522       -1.8707029568
 C        -9.0669387813       -3.9557838657       -2.4810196869
 O        -8.7119355327       -3.5621587819       -3.5624863970
 C       -10.3458431482       -3.3239501868       -1.8416110844
 C        -9.9944591733       -2.3821236663       -0.5974041051
 O        -9.1131496615       -2.6432866586        0.1641739146
 C       -10.8173451011       -1.0722717448       -0.4262973094
 C        -9.9975049138        0.1413914918        0.1172768831
 C        -9.3227776027        0.9694771451       -1.0471280592
 O        -9.6626430022        0.7111141476       -2.1861749682
 C        -8.2404308581        2.0074516539       -0.7581648495
 C        -7.6287583454        2.4339379527       -2.1882708743
 O        -6.5131817680        2.0578019062       -2.5310325835
 C        -8.4238242102        3.1256629784       -3.2720873863
 C        -8.9489263897        3.1571820277        0.0642882319
 C        -7.0790428857        1.4012913994        0.1216311828
 C       -11.0793586095       -2.6036019961       -2.9902496703
 C       -11.1803912904       -4.4751455531       -1.1096807181
 C        -6.2223862892       -6.9750549877       -6.1807683293
 C        -4.7760549969       -5.7828349895       -4.4734417119
 C       -10.1963663925       -0.8996241864       -7.6759532974
 C        -9.1256304705       -0.1567552174       -9.8198292199
 C        -4.2173090670       -0.7599385439       -4.3541146682
 C        -3.6324357910        1.5826268477       -5.0184405757
 C         3.5098825065        0.1864059886       -4.4284956724
 C         3.8965360932        0.0105696449       -6.9214648632
 C        -0.1056175841       -5.9629204101       -5.5226829871
 C         1.0971720768       -6.8583064237       -7.5507752915
 C        -4.7384482862       -4.2221534988      -12.0880488160
 C        -5.4819777420       -6.5158677719      -11.2235908500
 C        -1.1757967180       -5.6559591753      -17.5568439028
 C        -0.5055251046       -4.6210965862      -15.3397544767
 C        -4.0769738377        0.5653495968      -20.4196612291
 C        -1.8403041737        0.7192977364      -21.2637232225
 C        -0.1790598187        6.1600731825      -18.2952368723
 C         0.2241059617        6.0685774696      -20.7842290782
 C         2.1176575512        1.5317264933      -16.5049301996
 C         4.4018831304        1.8216317194      -17.5728803451
 H         4.4457202894       -2.0718444130      -17.9239302709
 H         4.4475574725       -1.3419932929      -16.2703367609
 H         5.3437263983       -0.6706442899      -17.6759595288
 H         3.2002538749        2.1406637145      -20.8277042655
 H         3.3115444323        3.1846717439      -19.3770458498
 H         0.7132710356        2.6592622504      -20.9845131561
 H         1.8355589548        4.0840527157      -21.2049732558
 H        -2.7661295584        4.7796959744      -18.1269310128
 H        -1.3261111825        3.7996840155      -17.7595013205
 H        -3.7728262100        2.9126516377      -19.5460285561
 H        -3.7498964803        2.7501183571      -17.8349061642
 H        -4.3954251783       -1.6585465391      -18.6447875206
 H        -3.0786161407       -1.0624553205      -17.4326871570
 H        -2.2868564058       -3.3201705578      -19.1742068747
 H        -3.6432638275       -3.7661822286      -18.0822559649
 H        -1.8788662070       -6.6334027386      -14.5553043778
 H        -3.0521614609       -7.3373987111      -15.6235153920
 H        -3.6622453250       -7.9523543928      -13.5636484730
 H        -4.7989326692       -6.3876290703      -13.8693183173
 H        -2.3393140474       -6.8958608598      -10.3428574745
 H        -3.0318393723       -6.7324667633       -8.6599004914
 H        -1.1445560749       -4.6918843415       -9.8146380956
 H        -0.5044086900       -6.3713780914       -9.6253419270
 H         3.1500788444       -4.7966882892       -7.7156234922
 H         2.9587547107       -4.7726390384       -5.9760722663
 H         2.7144712360       -2.3629508094       -7.8719783857
 H         4.2350213500       -2.8998216379       -7.1797946512
 H         0.4521954803       -0.9609118065       -4.3967422602
 H         0.0477812073       -1.4432264754       -5.9982321509
 H        -0.7518954590        1.2358791936       -5.9361240979
 H        -1.1078349753        0.7450485816       -4.3307790319
 H        -4.8970793568        2.0478663913       -7.6126441489
 H        -6.0328931782        1.6421997482       -6.2283218097
 H        -6.2815534924        0.1213589820       -9.0346844588
 H        -6.8550056839        1.7045859020       -9.0485363076
 H        -8.6978544613       -2.5160981807       -6.4784207350
 H        -7.1422728727       -2.0790592771       -6.5664685855
 H        -7.2189455908       -4.6525095472       -8.0136173671
 H        -8.3327043259       -4.6866764231       -6.5404452132
 H        -6.3274358227       -4.8425725064       -2.5623646252
 H        -6.6255931191       -6.4051056050       -2.1594984613
 H        -8.0719760735       -5.0286010253       -0.8171190140
 H        -9.1392365993       -6.0475050193       -1.9065828720
 H       -11.6309011149       -1.3747771386        0.2852483263
 H       -11.2832650731       -0.8824877444       -1.3660219573
 H        -9.2240034586       -0.1292998467        0.7919546194
 H       -10.5945005062        0.8591161474        0.7075299925
 H        -9.4965366098        3.3265008992       -3.0875168526
 H        -8.4326927484        2.6067252121       -4.2778837444
 H        -7.9135544600        4.0784145999       -3.6073388910
 H        -8.2253011164        4.0820697025        0.1272926423
 H        -9.2071348953        2.8779419271        1.1486101283
 H        -9.9468001765        3.4382935509       -0.3848352325
 H        -7.5496421696        1.0411413622        1.0270881627
 H        -6.2594145634        2.1840469977        0.1358375204
 H        -6.6772884680        0.5720280585       -0.4817062203
 H       -11.1483891472       -3.2958899017       -3.9158633221
 H       -10.4386642428       -1.7576333600       -3.2011094979
 H       -12.0492401224       -2.3119521659       -2.7391030286
 H       -12.0453592935       -4.0199207450       -0.5814698008
 H       -10.5522523774       -5.0887401179       -0.4458843402
 H       -11.5829070681       -5.2076056043       -1.8288153478
 H        -7.1822377684       -7.5385890874       -5.9844270762
 H        -5.4332415445       -7.6617360543       -6.2016219279
 H        -6.3584259523       -6.6056043697       -7.2539385266
 H        -4.1025321600       -5.5623172599       -5.2632114908
 H        -4.4394935778       -6.7560511871       -4.0540321832
 H        -4.6723622760       -4.9071926433       -3.8565104925
 H       -10.6942862700       -1.7566175601       -8.1531611402
 H       -10.7694927261       -0.0588408052       -7.9917758953
 H       -10.1846719137       -0.9439551231       -6.6098004327
 H        -8.1588192620        0.1901686798      -10.2404495341
 H        -9.7194796646        0.7232203660       -9.8852869041
 H        -9.5002369888       -0.9100250786      -10.4517471790
 H        -5.2480843638       -0.4278076399       -4.4009795121
 H        -3.6549086761       -0.6104105029       -3.4897682745
 H        -4.0744318341       -1.7697639238       -4.6277645292
 H        -2.9663461685        1.6678978471       -4.1315228135
 H        -4.5451263740        2.0282027667       -4.7612457950
 H        -3.2443003579        2.2404375008       -5.7478397063
 H         4.4347537255       -0.3395018698       -4.0920233275
 H         2.9377830495        0.0654160705       -3.4702923805
 H         3.9809950783        1.1994583315       -4.6804168477
 H         3.5665337989       -0.1605158578       -8.0078212290
 H         4.8061498885       -0.5051628670       -6.7444459798
 H         4.1058754084        1.1011521506       -6.7880588786
 H         0.6748756799       -5.5884606570       -4.8954959202
 H        -0.1672579017       -7.0436896127       -5.3496096632
 H        -1.0674983568       -5.4600151741       -5.3732601202
 H         1.6790936195       -6.7560352607       -8.4808751726
 H         0.5795704061       -7.7404054181       -7.7364357059
 H         1.8652229175       -7.0424047129       -6.8510969356
 H        -5.2342117948       -4.4667951328      -12.9960567015
 H        -3.8317574516       -3.6957421884      -12.4517668695
 H        -5.3552173476       -3.5175464439      -11.5534364040
 H        -5.9848151199       -6.1698664723      -10.3717798525
 H        -5.2104677043       -7.5542168642      -11.1256103997
 H        -6.1419287535       -6.5290432282      -12.0413702760
 H        -1.5791104441       -6.7226265291      -17.5121094574
 H        -0.0818303939       -5.8793100811      -17.4891672228
 H        -1.5887637713       -5.3647414384      -18.5029514100
 H         0.3237357818       -4.1588252523      -15.8359999798
 H        -0.2129474124       -5.6340231110      -15.0238251824
 H        -0.8280741559       -3.9712641680      -14.5628163300
 H        -4.4173592262       -0.3598924958      -20.9424701730
 H        -4.2145871968        1.4244870376      -21.0394605037
 H        -4.9937315571        0.6575718410      -19.7139676620
 H        -1.8948371008        1.7833762841      -21.7231581558
 H        -2.1307833466        0.1271096039      -22.0772209397
 H        -0.8193736039        0.6760354260      -21.0980236343
 H        -0.2981085203        5.5492470707      -17.3796120774
 H        -0.9001253305        6.9446833804      -18.5689735830
 H         0.8627651370        6.6752212267      -18.1351595689
 H         0.3147019880        5.4061210339      -21.5681054422
 H         1.2097451799        6.4170913074      -20.6866697136
 H        -0.5531402077        6.8139489769      -21.0151038864
 H         2.6646563951        1.3912285387      -15.5930180419
 H         1.1115710727        1.0619501481      -16.5755533729
 H         1.9048836940        2.5527109671      -16.7289087038
 H         5.1125559626        1.6301210191      -18.4109955530
 H         4.9950726600        1.5765157830      -16.6572907715
 H         4.0746392491        2.8554319393      -17.5001159671
 Na        0.0018784093       -0.4121367726      -17.8389676130
 Na       -3.4951426863       -2.9985755729       -7.4927203646
