232

 C         4.6669459069       -0.6738662785      -18.0547155145
 C         3.2648162731       -0.3026034883      -17.7897123955
 O         2.3806361051       -1.1596101058      -17.6068318735
 C         2.8635423409        1.1529560275      -17.5771921901
 C         2.0816825026        1.6764422927      -18.8152330931
 O         0.9571425202        1.2577167617      -18.9421090577
 C         2.6384000534        2.6473663464      -19.8952253168
 C         1.4781731228        3.5286599053      -20.4313690817
 C         0.8242233167        4.5024680185      -19.4547410118
 O         1.2133737384        4.5087610251      -18.3034172794
 C        -0.4155844031        5.3312310204      -19.8111718917
 C        -1.7499177412        4.4192496460      -20.0240521160
 O        -2.1832813903        4.2613674139      -21.1254563630
 C        -2.3340130219        3.8634482905      -18.7240939982
 C        -3.3493919037        2.6962578555      -18.8689778619
 C        -2.8736450777        1.2923258692      -18.5645390828
 O        -2.2626976699        1.1428627650      -17.5184100846
 C        -2.9894677860        0.3000255985      -19.7469535356
 C        -2.4028021373       -1.0122350519      -19.2030429654
 O        -1.4352931828       -1.5418792454      -19.7255437702
 C        -3.2222801609       -1.7592321683      -18.0743115855
 C        -2.6171456299       -3.2335260149      -18.0438795075
 C        -1.6499523816       -3.2733496535      -16.9150303768
 O        -0.9268650125       -2.3392443794      -16.6233270164
 C        -1.5362250545       -4.6168900813      -16.1579412889
 C        -2.9583600499       -5.1216280581      -15.6643372823
 O        -3.8337122980       -4.3207566660      -15.4193032313
 C        -3.0836683513       -6.6308689322      -15.2033532070
 C        -3.8969108776       -6.7632792556      -13.9350701143
 C        -3.2850544400       -5.9632981745      -12.7485079374
 O        -2.1071569929       -5.6686432999      -12.5980910706
 C        -4.2770987831       -5.5003196493      -11.5860542652
 C        -3.3214452219       -4.9988321301      -10.2752515242
 O        -3.6185174725       -3.8934675194       -9.7271596977
 C        -2.3776210616       -5.9170908894       -9.4932956853
 C        -1.0390975362       -5.2805882340       -9.0178838005
 C        -0.9273705851       -5.3591707729       -7.4710517655
 O        -1.9503938969       -5.3216325766       -6.8138766452
 C         0.4560060791       -5.4467661398       -6.7550290545
 C         1.3923689864       -4.2784741462       -7.2139212068
 O         0.9579868837       -3.1802953562       -7.5279425298
 C         2.9734216928       -4.3815631516       -7.1702009144
 C         3.6147835880       -2.9830055949       -6.8893720528
 C         2.9432755534       -2.2681220188       -5.7071290241
 O         2.3656801604       -2.8879022385       -4.8370245268
 C         2.9100132542       -0.6479934760       -5.6698410845
 C         1.5177231202       -0.1278076347       -6.1166727060
 O         1.3195912783        0.6736993753       -6.9688957117
 C         0.3291038661       -0.8819519589       -5.3936882453
 C        -1.0313016754       -0.0767951630       -5.5290121279
 C        -2.3009802665       -0.8257332349       -5.7509706615
 O        -2.3558016332       -2.0203815544       -5.9564083186
 C        -3.6271140377        0.1222887125       -5.7676488498
 C        -4.5791194149       -0.2902321126       -6.9733249461
 O        -4.4884699802       -1.3156585253       -7.5644120460
 C        -5.5998803483        0.7661749413       -7.5415052069
 C        -6.7495855627        0.2122316417       -8.3608288161
 C        -8.1148487794        0.0798806928       -7.6793793230
 O        -8.3790205868        0.8090585264       -6.7293525110
 C        -9.1511945191       -0.9438259291       -8.1866405876
 C        -8.6118056756       -2.4366967361       -8.0292205846
 O        -8.5701540486       -3.1586827897       -9.0114514831
 C        -8.0227467426       -2.8057448923       -6.6745341641
 C        -7.5961779309       -4.2585626706       -6.7081403425
 C        -6.1893412214       -4.5355265235       -6.0561537747
 O        -5.4182310735       -3.5919196436       -5.7964118839
 C        -5.9123978701       -5.9577736044       -5.5373986873
 C        -7.0579762646       -5.9250063241       -4.3478423981
 O        -8.0772924489       -6.4746274257       -4.5668605485
 C        -6.8093910824       -5.0243303227       -3.1527707035
 C        -8.1075300145       -4.9556361294       -2.2821023421
 C        -9.1262591088       -3.9781384578       -2.8885514208
 O        -8.9433054988       -3.4539862272       -3.9644057499
 C       -10.2745241455       -3.5632878443       -1.9527827885
 C        -9.6404296448       -2.4440073988       -1.0554403047
 O        -8.5086611062       -2.5614119677       -0.6708237296
 C       -10.2522141145       -1.0838581195       -0.7870716286
 C        -9.0920704624       -0.1378683490       -0.1856164166
 C        -9.0748665433        1.2206271526       -0.9717032950
 O       -10.0591571745        1.6808889088       -1.5063830857
 C        -7.7803642288        2.1322477109       -0.8157540473
 C        -7.4521794874        2.8484966797       -2.1418772311
 O        -6.3610274071        2.6825617494       -2.7230028346
 C        -8.5396955487        3.6618246440       -2.8159390685
 C        -8.2019830814        3.2675471102        0.1707153235
 C        -6.4790144853        1.3212646179       -0.3132850479
 C       -11.5756943792       -3.0574811020       -2.6456494926
 C       -10.8348367302       -4.7126323412       -1.0411526383
 C        -6.3444817021       -7.0395366283       -6.5297712866
 C        -4.4497014990       -6.1005096749       -4.9841339873
 C       -10.4203829991       -0.7515776050       -7.1929613622
 C        -9.3787954510       -0.4139476480       -9.6056620674
 C        -4.3959368692       -0.4992545976       -4.4824505617
 C        -3.4792653806        1.6649915405       -5.6036307953
 C         3.1134740211       -0.2571369773       -4.1394633851
 C         3.9470884694        0.0543160372       -6.6112106417
 C         0.2874621911       -5.4599604596       -5.1333752925
 C         1.0677824146       -6.7952892576       -7.0953606326
 C        -5.1872206751       -4.3399646896      -12.0415819761
 C        -5.1391542520       -6.6402531948      -10.9751294288
 C        -1.0515133856       -5.7581390857      -17.1743118397
 C        -0.6821545652       -4.4958447936      -14.9476537897
 C        -4.4979826938        0.2603186953      -20.0454386347
 C        -2.0976065068        0.8280245936      -20.8716288756
 C        -0.7864795847        6.5817831965      -18.8348089589
 C        -0.0850036711        5.9336324650      -21.2207394584
 C         1.9930828255        1.4786280642      -16.3287007810
 C         4.1936016668        2.0353214170      -17.4787949799
 H         4.8269967899       -1.7395489723      -18.1177989311
 H         5.3668350425       -0.2738906052      -17.2927908044
 H         5.0051078856       -0.2616400036      -19.0183874250
 H         2.9741564045        2.0165878584      -20.7629906401
 H         3.3880248044        3.3498548864      -19.4736715452
 H         0.7231293294        2.9141758819      -20.8015191170
 H         1.9613453887        4.0655983152      -21.2856085797
 H        -2.9703701737        4.6605500890      -18.2814735163
 H        -1.5898688827        3.7470565925      -17.9041063146
 H        -3.8156179065        2.7458229190      -19.8865663989
 H        -4.1591047475        2.7241828832      -18.1364534136
 H        -4.2379223414       -1.7204397855      -18.3874786224
 H        -2.8829873531       -1.1720434338      -17.1816110888
 H        -2.2338527595       -3.5583194281      -19.0030861679
 H        -3.5698824775       -3.9055879865      -17.9528411814
 H        -2.0430683223       -7.0955194986      -15.2927592616
 H        -3.5829920105       -7.1297666686      -16.0622137398
 H        -3.8856353103       -7.7913229521      -13.6834836930
 H        -4.8676925386       -6.2922819535      -14.1017916441
 H        -2.2762073899       -6.8067015420      -10.0664106484
 H        -2.7836166623       -6.2774195676       -8.5223385346
 H        -1.0565216630       -4.1847036963       -9.1791664488
 H        -0.2323219718       -5.8684071617       -9.4742220231
 H         3.3773239785       -4.7883280685       -8.1029521879
 H         3.3334779226       -4.9698879818       -6.4133302410
 H         3.6869552818       -2.3213242913       -7.7566046236
 H         4.6414221960       -3.0830814971       -6.5805617001
 H         0.6180250885       -1.1456617085       -4.3855397926
 H         0.2791180968       -1.7818739718       -6.0415130900
 H        -0.9452621921        0.6774938589       -6.2952454151
 H        -1.2585961404        0.5424822637       -4.6028290501
 H        -4.8544493086        1.4501667766       -8.0907338991
 H        -6.0132923601        1.3356242120       -6.7491216683
 H        -6.4341820001       -0.7294290312       -8.8516010852
 H        -7.0508048441        0.8157210098       -9.1632753146
 H        -8.6659786518       -2.6219256991       -5.8176033381
 H        -7.1370575583       -2.2258320335       -6.4562118435
 H        -7.6017145643       -4.6177888104       -7.7574232251
 H        -8.3746525106       -4.9343501824       -6.2199695057
 H        -6.5191330781       -4.1069948835       -3.6322097409
 H        -6.0269296629       -5.5687299417       -2.5908964332
 H        -7.8096091677       -4.7292547757       -1.2273679083
 H        -8.6959849264       -5.9087190872       -2.5024628798
 H       -10.9320232322       -1.2078532168       -0.0072422891
 H       -10.5856684107       -0.6392713669       -1.7172698088
 H        -8.0873117731       -0.5769548196       -0.3316386149
 H        -9.2904108447        0.0493018451        0.8712831727
 H        -9.3121650864        3.9612742262       -2.0942078758
 H        -9.1251654334        2.9672135752       -3.4951307763
 H        -8.2263466969        4.2398712856       -3.6699658591
 H        -7.6213822203        4.2263305792       -0.0625134280
 H        -8.0990716737        2.8923766058        1.2388950807
 H        -9.3029317560        3.5558758090        0.0321264998
 H        -6.5041651671        0.8694620842        0.7385204304
 H        -5.6649276481        2.0586120340       -0.2746192034
 H        -6.4253090647        0.5781327569       -1.1294333282
 H       -11.9898711360       -3.9022703148       -3.2069207608
 H       -11.5028039489       -2.2174265119       -3.2398368041
 H       -12.2154427162       -2.7890235078       -1.8267023598
 H       -11.5307580813       -4.1342302293       -0.3889805497
 H       -10.1465907834       -5.0696957101       -0.3207935569
 H       -11.3497180104       -5.4732934716       -1.5674930407
 H        -6.8988448685       -6.6545952474       -7.3849993345
 H        -6.8507905328       -7.9186446624       -6.0391357979
 H        -5.4374348905       -7.4262081629       -6.9827920005
 H        -3.8107904759       -5.9224625610       -5.8821317804
 H        -4.2460734076       -7.0500583497       -4.5542421496
 H        -4.2616488278       -5.3570980691       -4.2451980896
 H       -11.3053040632       -1.3064996409       -7.5200658376
 H       -10.6212788353        0.2741706466       -6.9637938855
 H        -9.9926283306       -1.2930158886       -6.3104742667
 H        -8.6144713468       -0.4345281863      -10.3262436581
 H        -9.7549598115        0.5472968998       -9.5699106170
 H       -10.2103212202       -0.9925095446      -10.0757290203
 H        -5.4221175170       -0.2724027921       -4.5282782453
 H        -3.8552372080        0.0247473567       -3.6382889464
 H        -4.3289061544       -1.5723602635       -4.6200827055
 H        -3.0696402699        2.0353105628       -4.7093630405
 H        -4.5154314605        1.9736487862       -5.5896692688
 H        -2.9315243526        2.0975409299       -6.4786639196
 H         4.0107112137       -0.7635161219       -3.8252614438
 H         2.3074884389       -0.5828053318       -3.5357096205
 H         3.1410708110        0.8284985573       -3.7965260186
 H         3.4946365141        0.0541057149       -7.5798968851
 H         4.9629393449       -0.4840098432       -6.5607968437
 H         4.1601343496        1.1267540427       -6.3187473939
 H         1.1013964960       -5.9934480614       -4.6827563628
 H        -0.6089952058       -6.0051306219       -4.9804807896
 H         0.2773174828       -4.4066877286       -4.7385854572
 H         1.1557782297       -7.0032526823       -8.2020964062
 H         0.5204953923       -7.6445519471       -6.8257775530
 H         2.0639991941       -7.1291354680       -6.6789241265
 H        -6.1038334662       -4.7286005889      -12.3916598144
 H        -4.8365587379       -3.5339465235      -12.7796932103
 H        -5.4042690507       -3.7839997004      -11.0925761437
 H        -5.8333174670       -6.3634115949      -10.2424989881
 H        -4.4276088348       -7.2926004346      -10.4639731906
 H        -5.6432078539       -7.0975054537      -11.7897585022
 H        -0.0975399897       -6.0944856031      -16.8633552591
 H        -1.0328863549       -5.2507911166      -18.1662898076
 H        -1.7225279548       -6.6320166660      -17.3848796532
 H         0.3782436265       -4.4631443109      -15.2631773542
 H        -0.9311091638       -5.2584707835      -14.2338219162
 H        -0.8911682935       -3.5288174435      -14.4794915100
 H        -4.9683176781       -0.5462928255      -20.5613279842
 H        -4.8217405146        1.0136602144      -20.7317720791
 H        -5.1037318106        0.4688895834      -19.1737434721
 H        -2.2896180767        1.8034764372      -21.3747785607
 H        -2.0761963896        0.1514305902      -21.6255790334
 H        -1.0658100037        0.7505345500      -20.6818362014
 H        -0.5461240722        6.2317997389      -17.7943182997
 H        -1.8249560118        6.8911113697      -18.8684263230
 H        -0.1080853768        7.3811965426      -19.0572391870
 H        -0.5226167194        5.4383670475      -22.0377282012
 H         0.9283105147        6.1545766179      -21.2974258603
 H        -0.4469113987        6.9411098472      -21.2674135421
 H         2.6091865592        1.8001018820      -15.5205713032
 H         1.4516062320        0.5905699686      -15.9984951750
 H         1.3233315611        2.3571626684      -16.6170268355
 H         4.8563274645        2.0215617219      -18.3887129599
 H         4.8278255187        1.7863608507      -16.6233788083
 H         3.9747563561        3.0658685196      -17.2746733099
 Na        0.0971165197       -0.6639187309      -17.7851741382
 Na       -3.5567516786       -3.4556324572       -7.3964980782
