232

 C         4.3813570806       -0.4604005788      -18.6157860232
 C         3.0873495072       -0.0426405614      -17.9172217267
 O         2.1517746307       -0.7991155476      -17.6723621182
 C         2.8717925060        1.4822191546      -17.4261506943
 C         1.8639384790        1.9651787719      -18.5743175321
 O         0.8540108233        1.3499718668      -18.7247069303
 C         2.4769941780        2.7214561426      -19.7697658860
 C         1.2967832610        3.4165356734      -20.4536718707
 C         0.6311976871        4.5479062011      -19.5960816137
 O         0.9196534979        4.6445960323      -18.4311799202
 C        -0.5952859717        5.3609828130      -20.0661906044
 C        -1.6587782247        4.2463541503      -19.9826837143
 O        -2.1946088084        3.7807367061      -20.9609571678
 C        -2.0132494268        3.7546073695      -18.6323911132
 C        -3.2719400891        2.8504404658      -18.5149828674
 C        -2.7790967637        1.3293816288      -18.6629755416
 O        -2.0147654219        0.9819211917      -17.7202566774
 C        -3.1248509979        0.3280770044      -19.7667773910
 C        -2.4994803247       -1.0046186981      -19.3157230601
 O        -1.3461137208       -1.2809116179      -19.5427426979
 C        -3.3761391760       -1.9884886398      -18.3914382187
 C        -2.5777092859       -3.2833733822      -17.9662518148
 C        -1.5421403843       -3.2541137003      -16.8659938709
 O        -0.7759518630       -2.3372384554      -16.7528406629
 C        -1.4077568389       -4.5922374564      -16.0010240613
 C        -2.7843704596       -4.8646633934      -15.3383096397
 O        -3.6615914466       -4.0379794188      -15.3869806010
 C        -3.0798255023       -6.3407871328      -14.8558819843
 C        -3.9363941890       -6.4552229874      -13.6322126423
 C        -3.2793467650       -5.8297109562      -12.3704708972
 O        -2.0872698811       -5.5381938892      -12.4128038235
 C        -4.1627499476       -5.4674836059      -11.2354475042
 C        -3.3596292267       -5.0001760527       -9.9800718649
 O        -3.8582647814       -4.1262266040       -9.3097069175
 C        -2.0641235611       -5.7575162891       -9.5589041850
 C        -1.0491644043       -4.9024656714       -8.8711350735
 C        -0.9318813884       -5.2368618302       -7.4413932942
 O        -1.9362159260       -5.2785687293       -6.7393989440
 C         0.4715542637       -5.4711266648       -6.7901962420
 C         1.3803310760       -4.3490552725       -7.3540580901
 O         0.9892418099       -3.4150413786       -8.0098053613
 C         2.9109697271       -4.4912103490       -7.0259775887
 C         3.3930132029       -3.0201915697       -6.8923625418
 C         2.8152965283       -2.2978836366       -5.6590497611
 O         2.2708584146       -2.9599750226       -4.8168288658
 C         2.8752177256       -0.7173795699       -5.5409847910
 C         1.5161638396       -0.3310649783       -6.3352988081
 O         1.4170558341        0.4626573711       -7.2167939887
 C         0.2574641276       -1.1526012455       -5.8609663523
 C        -0.9495310228       -0.3290099741       -5.6291356123
 C        -2.3113244739       -0.9139899086       -5.9047955104
 O        -2.3559763179       -2.1371237700       -6.0207298680
 C        -3.6243631240       -0.1007076257       -5.9058661392
 C        -4.4791717915       -0.3997690716       -7.2148444554
 O        -4.1864527563       -1.3276210672       -7.8528412671
 C        -5.6397750466        0.5917429774       -7.4487959422
 C        -6.7479475560        0.0671938613       -8.4305960542
 C        -8.1452703547        0.0863985465       -7.6913529780
 O        -8.3094373214        0.8389975753       -6.7241340000
 C        -9.2560408724       -0.8201669218       -8.1662057532
 C        -8.6415814445       -2.3071057150       -7.9889260254
 O        -8.8040895661       -3.1406015474       -8.8437410522
 C        -7.7358674601       -2.6915587128       -6.8334041740
 C        -7.6492120472       -4.2394684757       -6.7094403958
 C        -6.2953181737       -4.6302022219       -6.2629984128
 O        -5.3694009099       -3.8217224985       -6.3818008448
 C        -6.0513231214       -6.0901848910       -5.6266519210
 C        -7.1235932049       -6.2008007094       -4.4585035988
 O        -7.9612635213       -7.0406739444       -4.4508905362
 C        -6.8971037186       -5.2285670667       -3.2950129068
 C        -8.0837058265       -5.0208439795       -2.3954677397
 C        -9.1748302184       -4.0924504255       -2.9875678131
 O        -9.2349910564       -3.8002875076       -4.1692109536
 C       -10.1061754636       -3.4653334273       -1.8390166150
 C        -9.2813994128       -2.3623279439       -1.1131621970
 O        -8.2958243010       -2.6520189897       -0.4522324941
 C        -9.8232902469       -0.9087168073       -1.2430242221
 C        -8.8586705958       -0.0300079300       -0.4048462268
 C        -8.9232854082        1.4487505733       -0.7510060731
 O       -10.0140285659        1.8042005223       -1.1644651298
 C        -7.6486919923        2.3711701619       -0.7622730520
 C        -7.5043793719        2.9694089885       -2.1774829292
 O        -6.4704018436        2.6823319252       -2.8079877660
 C        -8.5376805053        3.8794084955       -2.7374483793
 C        -7.6816799420        3.4754957638        0.3283513878
 C        -6.3514218258        1.5606957828       -0.5269489385
 C       -11.3900003923       -3.0448086369       -2.5253755794
 C       -10.5324975163       -4.6044192734       -0.7213055051
 C        -6.3491032914       -7.1465409342       -6.7127988767
 C        -4.5964920855       -6.2662915134       -5.0672015840
 C       -10.4672101830       -0.8707702787       -7.0909106204
 C        -9.7637367287       -0.6330205813       -9.6008962971
 C        -4.5302575708       -0.5011149603       -4.6773530084
 C        -3.3900939313        1.4172444280       -5.8985310054
 C         2.6048791681       -0.3728941620       -4.0481887351
 C         4.0969085850       -0.0003187405       -6.2391667008
 C         0.3835404486       -5.2119989005       -5.2510399793
 C         1.0449188162       -6.8755108006       -7.1958074603
 C        -5.0668514870       -4.3669146500      -11.7672787933
 C        -5.0593818744       -6.7416186286      -10.9004981063
 C        -1.0274509781       -5.7029451299      -16.9855238686
 C        -0.2741875268       -4.5904869917      -14.8836518809
 C        -4.6499176285        0.1879755470      -19.9327412710
 C        -2.4375990155        0.7629898442      -21.0086111394
 C        -0.8285351260        6.5919676793      -18.9925111523
 C        -0.4023956442        5.9775105851      -21.5256509600
 C         2.0743249962        1.4391216665      -16.0455011219
 C         4.0840069669        2.3997998102      -17.2935721411
 H         4.2763045207       -1.3199235765      -19.3088156273
 H         5.2044973342       -0.7031230381      -17.9390035286
 H         4.7428568834        0.4297326739      -19.0962723191
 H         2.9463840595        1.9893908865      -20.3857844378
 H         3.1969977437        3.4337328314      -19.4389315088
 H         0.5272577075        2.6192013697      -20.7245072254
 H         1.5850319409        3.8639092594      -21.4177121474
 H        -2.1591011157        4.5299716523      -17.8637085500
 H        -1.1562541782        3.2577840802      -18.1820672442
 H        -4.0073007414        3.1348913974      -19.3080251466
 H        -3.6056486840        2.8475370701      -17.4645985424
 H        -4.2611180376       -2.1985191060      -18.9832767420
 H        -3.5297118701       -1.3313557283      -17.4764657860
 H        -2.0581404889       -3.6333620705      -18.8458842949
 H        -3.3403162554       -4.0976596267      -17.9452637728
 H        -2.1655907439       -6.8731314331      -14.8218346402
 H        -3.5111306032       -6.8472038823      -15.6602047536
 H        -4.1555907182       -7.6186236754      -13.5487269726
 H        -4.9100690020       -5.9290059531      -13.7554886344
 H        -1.6054304658       -6.3117666349      -10.4099606589
 H        -2.4306099818       -6.6634580970       -9.0208669073
 H        -1.3938167849       -3.8573276894       -8.9378813418
 H        -0.1228352063       -5.0793600915       -9.3843331886
 H         3.5073555197       -4.9681114098       -7.8362888963
 H         3.1111236107       -5.0747513344       -6.0861345994
 H         3.0213680989       -2.5125213816       -7.8028884652
 H         4.5180580252       -2.9274519228       -6.9737834670
 H         0.5465194000       -1.7845153677       -4.9764870766
 H         0.0992751097       -1.7330582280       -6.7280198594
 H        -0.8560696080        0.4795640262       -6.2995748106
 H        -0.8522031880        0.1523224999       -4.5892787497
 H        -5.2690567696        1.5700173581       -7.9582583451
 H        -6.0259852086        0.9141825275       -6.4725470582
 H        -6.5941666467       -0.9860009939       -8.7985650288
 H        -6.8730306203        0.7674845311       -9.3141150462
 H        -8.0417983573       -2.3621944951       -5.8711540954
 H        -6.7637866479       -2.2133191649       -7.0609383560
 H        -7.9740368288       -4.6530462688       -7.6774691708
 H        -8.3862339541       -4.6955001966       -6.0408401522
 H        -6.6851993832       -4.3226020422       -3.7937325455
 H        -6.1140751933       -5.7234622800       -2.7433553515
 H        -7.7085058527       -4.6680822328       -1.4749137003
 H        -8.6533981050       -5.9423402835       -2.3822574004
 H       -10.7848421777       -0.9436699665       -0.7393327055
 H        -9.7569007828       -0.5604363449       -2.3054555276
 H        -7.8660622784       -0.5113974530       -0.4592122863
 H        -9.2312089790       -0.0027387382        0.6020202961
 H        -9.1125401908        4.3621988213       -1.9391197644
 H        -9.2901766225        3.3500180145       -3.2947737679
 H        -8.1913165464        4.5383870173       -3.5431849857
 H        -6.8188995712        4.0633130640        0.4501907069
 H        -7.8698704313        3.0558697248        1.2869026370
 H        -8.4538835744        4.1576816677        0.0360595404
 H        -6.5187168473        0.8770884965        0.2977287035
 H        -5.5274426343        2.1642273013       -0.2777863011
 H        -6.1494581050        1.0432246765       -1.4506389028
 H       -11.8323720271       -3.9553215532       -2.9185553157
 H       -11.1535805785       -2.5913464301       -3.4870552177
 H       -12.1307223285       -2.4846308557       -1.8356335478
 H       -11.4832459756       -4.3567342962       -0.1764651305
 H        -9.6664448071       -4.8435257777       -0.0713552812
 H       -10.8554920307       -5.4524166518       -1.3664391158
 H        -5.7992497685       -6.8992309408       -7.5906932318
 H        -7.4759506968       -7.0818278699       -6.9801981959
 H        -6.1129706733       -8.1265170566       -6.3283218610
 H        -3.8946175856       -6.3234922392       -5.9415077987
 H        -4.5815577419       -7.0899985468       -4.3951154654
 H        -4.2798482485       -5.3800605852       -4.4688613275
 H       -10.9133118971       -1.8178697380       -7.0543112346
 H       -11.1329926927       -0.0445910368       -7.2239519352
 H        -9.9050879497       -0.7272902251       -6.1635469272
 H        -9.1303406741       -0.5366661694      -10.4544994949
 H       -10.4345486126        0.2459764147       -9.6426807541
 H       -10.5180742276       -1.4828520307       -9.8130782334
 H        -5.2241937199        0.2323775769       -4.5319281870
 H        -3.9330344173       -0.6842667798       -3.7136166652
 H        -5.0365607147       -1.2843177346       -5.1517059084
 H        -2.9371078723        1.6629790035       -5.0045942582
 H        -4.3732839321        1.9054427656       -5.9632051060
 H        -2.7020418855        1.7820900356       -6.6910611815
 H         3.4870154718       -0.6241146574       -3.4214680838
 H         1.7180986618       -0.8632703430       -3.6931711595
 H         2.2281254456        0.6927513170       -3.8174728877
 H         4.4272900170       -0.4675463210       -7.0939038505
 H         4.9438448492        0.0871146379       -5.4846121376
 H         3.7701692403        0.9904155010       -6.4173176415
 H         0.9598562567       -6.0131479844       -4.7510329553
 H        -0.6611067639       -5.2142277573       -4.9763073528
 H         0.9075037526       -4.2752821975       -5.0054031600
 H         1.1314452154       -7.1025029580       -8.1975264720
 H         0.6098650121       -7.7064121656       -6.7275054217
 H         2.0218049562       -7.0944438810       -6.8306497603
 H        -5.9818744457       -4.7930584064      -12.0629507180
 H        -4.6332189809       -4.0527053583      -12.7034828021
 H        -5.2704931861       -3.5004378164      -11.1775245417
 H        -5.5326160015       -6.6658310913       -9.8926883199
 H        -4.3087423344       -7.5408992599      -10.8602085716
 H        -5.8274993151       -6.9079017007      -11.6791009109
 H        -0.4327228401       -6.3842956103      -16.4565241680
 H        -0.6938821525       -5.2548875962      -17.9231784930
 H        -2.0015361663       -6.2071398499      -17.3136456389
 H         0.6637574122       -4.2639995426      -15.3270618685
 H        -0.2031127748       -5.6033836717      -14.5769715921
 H        -0.5121892953       -4.0429264789      -13.9686019488
 H        -4.9353322018       -0.5312574859      -20.7597659784
 H        -5.3664081551        1.0133366469      -20.2005642661
 H        -5.0719687193       -0.2162901455      -19.0065620398
 H        -2.7011237958        1.7550171892      -21.3651839844
 H        -2.4917529124        0.0463704923      -21.7904696408
 H        -1.3266408818        0.7889033474      -20.9974353947
 H        -1.0617117151        6.3008038788      -17.8958049387
 H        -1.7491766002        7.2171762277      -19.2285016592
 H         0.0625420771        7.1996918504      -18.9677410385
 H         0.1231466868        5.2319085885      -22.1962500837
 H         0.0992896912        6.9629883100      -21.3986973052
 H        -1.2630857376        6.2890200060      -22.1059472864
 H         1.8031453666        2.4576207225      -15.6915924367
 H         2.6521191392        0.9961638273      -15.2960300917
 H         1.1132370564        0.9126033711      -16.2242324320
 H         4.6368083524        2.6096618515      -18.2077841304
 H         4.7627896299        2.1680353823      -16.4673439187
 H         3.8244131989        3.4553658876      -17.1267834105
 Na       -0.3041107243       -0.3193698023      -17.7271998692
 Na       -3.3071799529       -3.5391328776       -7.1355529317
