232

 C         4.2686851944       -0.1884112267      -18.8283946062
 C         2.9898975647        0.0866632969      -18.0755474858
 O         2.0829882207       -0.7423404547      -17.7609913321
 C         2.6881293673        1.5461304006      -17.5584871273
 C         1.7767924329        2.2719053324      -18.6678195800
 O         0.5781026304        2.2348023573      -18.5286692843
 C         2.5078686430        3.0735774267      -19.8200889259
 C         1.4541454057        3.9744692040      -20.5107764542
 C         0.5558574135        4.7724118555      -19.5192393794
 O         0.9538609797        5.0833307902      -18.4106908539
 C        -0.7640033146        5.4010403684      -20.1964588436
 C        -1.9341116178        4.3070826421      -19.9578527728
 O        -2.2838954684        3.5884775610      -20.8393556188
 C        -2.5884940988        3.9572405590      -18.5449301337
 C        -3.5631152216        2.7750146255      -18.5746899084
 C        -2.8151235744        1.3749123020      -18.5893179320
 O        -2.0048127307        1.2150635292      -17.6392615039
 C        -3.2075975309        0.2661007926      -19.6134272671
 C        -2.4814251482       -1.0237102560      -19.2307656437
 O        -1.3319411907       -1.2173393646      -19.5305611818
 C        -3.2113579001       -2.2318079705      -18.4824434783
 C        -2.3076393781       -3.4440078180      -18.3659611465
 C        -1.5224755254       -3.3931876175      -17.0995669075
 O        -1.2335548918       -2.2874119935      -16.6797589030
 C        -1.2051578141       -4.6080362435      -16.1431857402
 C        -2.5189740228       -4.8740193641      -15.3236371651
 O        -3.0976799657       -3.8900287960      -14.8779265512
 C        -3.0146477395       -6.3109779354      -14.8606782462
 C        -3.9325541218       -6.2770384282      -13.6489699453
 C        -3.4249667694       -5.7447921552      -12.2984245673
 O        -2.3002869242       -5.3649324433      -12.2778744585
 C        -4.4596882061       -5.5708870612      -11.0614441230
 C        -3.5342587150       -5.1666228068       -9.8194464732
 O        -3.8154242705       -4.1120672634       -9.1221589081
 C        -2.2834511535       -5.9215962428       -9.3747355115
 C        -1.1672964588       -4.9954186602       -8.8661840087
 C        -0.8347498801       -5.2199433487       -7.3614456793
 O        -1.7510111917       -5.0915268999       -6.5372018207
 C         0.6308455380       -5.5772061955       -6.9384240313
 C         1.6376493757       -4.5125275126       -7.4510294928
 O         1.2740413058       -3.6235128888       -8.1882396897
 C         3.1307654739       -4.5300143875       -6.8531089797
 C         3.5241430653       -3.0640326502       -6.6146430859
 C         3.0852437377       -2.3940112280       -5.3132916063
 O         3.1354547309       -2.8929215385       -4.2116207874
 C         2.8076730528       -0.7988452115       -5.4690385263
 C         1.6664774512       -0.4223835081       -6.4488245567
 O         1.8869707174        0.3822265174       -7.3211842029
 C         0.1820988324       -1.1007289627       -6.3506832175
 C        -0.9539462190       -0.1047996676       -6.4629462030
 C        -2.3265511294       -0.7270180445       -5.9993802571
 O        -2.2429916723       -1.9352332472       -5.6725469227
 C        -3.7020803076        0.0356805550       -6.0178973491
 C        -4.4798474504       -0.3474615427       -7.3482965570
 O        -4.2755335228       -1.4064502374       -7.8897661855
 C        -5.5054391745        0.6234730684       -7.8313575149
 C        -6.7133550192       -0.1371405579       -8.4930580698
 C        -8.0452019675       -0.0045563666       -7.6635560895
 O        -8.1110592677        0.7190618832       -6.7258206743
 C        -9.2172339646       -0.8933613727       -8.1214089252
 C        -8.8246125527       -2.4404366507       -8.1512598726
 O        -9.0430149338       -3.1395456275       -9.1133483046
 C        -8.1921829074       -3.0396813011       -6.9300179088
 C        -8.0317910517       -4.5647569050       -6.8548319922
 C        -6.5952040461       -4.9579948659       -6.2882721954
 O        -5.7438708969       -4.0362365619       -6.3738763459
 C        -6.2600958302       -6.4281186198       -5.7354668939
 C        -7.0708311195       -6.6066047105       -4.3845420695
 O        -7.7827005508       -7.5422396546       -4.3331420540
 C        -6.9402474959       -5.5687741808       -3.2819203935
 C        -8.1088835578       -5.4034015318       -2.3545049212
 C        -9.2128729543       -4.3723370137       -2.8121935016
 O        -9.3410082239       -3.9821601853       -3.9501638776
 C        -9.9744642531       -3.5349381191       -1.5950998152
 C        -8.9763484877       -2.4543433266       -1.0268041951
 O        -8.1840097284       -2.7012113578       -0.1639394570
 C        -9.0857434662       -0.9675262882       -1.6114914605
 C        -8.5031363907        0.0066334843       -0.4780923262
 C        -8.7284249057        1.5679210631       -0.6249925703
 O        -9.7927231798        2.1045869295       -0.7567068534
 C        -7.3461469736        2.6074629738       -0.7734030823
 C        -7.4072940302        3.1648795302       -2.1836328773
 O        -6.6808939405        2.6951443254       -3.0757321435
 C        -8.3058308450        4.3065355627       -2.5536492784
 C        -7.5135308546        3.8695046017        0.1414753045
 C        -5.9993846072        1.9243581626       -0.5893717932
 C       -11.2059741596       -2.9325196135       -2.3774770826
 C       -10.5944516136       -4.4178670498       -0.5083523963
 C        -6.7403630141       -7.3530349667       -6.8694701171
 C        -4.7619643330       -6.6181047357       -5.5184015253
 C       -10.4071708451       -0.7742253168       -7.0377284810
 C        -9.6851641886       -0.5311558185       -9.4723491145
 C        -4.6792661609       -0.6896460172       -5.0185543198
 C        -3.6338743652        1.5194459012       -5.8591505589
 C         2.3266766806       -0.3567354240       -4.0421486607
 C         4.0639029665       -0.0195566047       -5.9104728596
 C         0.6415732489       -5.6877716072       -5.3924118144
 C         1.0963865675       -6.9415484817       -7.5797217197
 C        -5.4474917421       -4.4331396231      -11.3687344376
 C        -5.1657479442       -7.0008973243      -10.9952686424
 C        -0.6766912489       -5.7879537350      -17.1104500903
 C        -0.1541273180       -4.4262994073      -15.0330150439
 C        -4.7414929506        0.0728805118      -19.3441987128
 C        -2.7807763084        0.5450838091      -21.0331885027
 C        -1.0945838524        6.6273440491      -19.4245437797
 C        -0.5899383453        5.6016938132      -21.7275890622
 C         1.7766978395        1.5509980269      -16.2850977689
 C         3.9617588348        2.3629797438      -17.2966532797
 H         4.4551070293       -1.2239989907      -18.9975291673
 H         5.1485538876        0.2119569865      -18.3107336490
 H         4.2521681989        0.4097171492      -19.7251026138
 H         2.9710877052        2.3932234025      -20.5261909633
 H         3.3727310031        3.6110383924      -19.4494548211
 H         0.8338640486        3.3801248553      -21.2185103979
 H         1.9124392502        4.7109092010      -21.2258038529
 H        -3.2900372743        4.7695915948      -18.3182719757
 H        -1.9145891447        3.8830453764      -17.7034088558
 H        -4.1781907580        2.7898179163      -19.4944521720
 H        -4.1152042241        2.8608977158      -17.6564426449
 H        -4.1120376149       -2.3654762139      -19.0214663949
 H        -3.3966440443       -1.8378468764      -17.4469313500
 H        -1.6954843871       -3.5189912180      -19.2147175155
 H        -2.8877895538       -4.3897592975      -18.5865597792
 H        -2.1309032306       -6.9493061460      -14.8271102467
 H        -3.5507254321       -6.7295868329      -15.6805880494
 H        -4.2790399824       -7.3572299073      -13.3709455428
 H        -4.9509291216       -5.8566315355      -13.8256785351
 H        -2.0007250062       -6.6569540493      -10.1523260719
 H        -2.6001212908       -6.7338932933       -8.6529061993
 H        -1.4412137562       -3.9407921669       -8.9428350957
 H        -0.3386550478       -5.0682152680       -9.5465362797
 H         3.8252429302       -5.1047333363       -7.5739738343
 H         3.1947764792       -5.1281692667       -5.9406914437
 H         3.0489338106       -2.5730826696       -7.4747195933
 H         4.6262157192       -2.9008306053       -6.6853195931
 H         0.1123701350       -1.6305122739       -5.3552201711
 H         0.1112991678       -1.8780809374       -7.0993570753
 H        -1.0800955668        0.3505915572       -7.3888104808
 H        -0.6626941903        0.7482330245       -5.7592465227
 H        -5.0430374217        1.3305833750       -8.6044536093
 H        -5.8526378359        1.2470081117       -7.0545601601
 H        -6.4949034762       -1.2381250584       -8.4669798076
 H        -7.0072988185        0.1862644520       -9.4935835830
 H        -8.7263356435       -2.8216694355       -5.9865026784
 H        -7.0930176936       -2.6473433618       -6.8655585353
 H        -8.1378486054       -5.0682493436       -7.7915188574
 H        -8.7923712614       -5.0609246500       -6.2911504893
 H        -6.6861548766       -4.6427077284       -3.8261841651
 H        -6.1102478465       -6.0455486185       -2.6967891111
 H        -7.7310205719       -5.0909670235       -1.4262403179
 H        -8.6225577243       -6.3487603595       -2.2753977672
 H       -10.0974582232       -0.6003083415       -1.8237500765
 H        -8.4554875290       -1.0010984235       -2.5559298621
 H        -7.4053928714       -0.1571064983       -0.3877959305
 H        -9.0568954996       -0.3354370396        0.3744137151
 H        -8.5585924016        5.1018344995       -1.8561269430
 H        -9.2515263153        3.8571233583       -2.8288172718
 H        -7.9684988034        4.8324264588       -3.4337757095
 H        -6.9069940163        4.6452152719       -0.2487111292
 H        -7.0858124216        3.7514073114        1.0704431861
 H        -8.4762433596        4.2302468751        0.2783921712
 H        -5.8967041305        1.6997982098        0.4728146109
 H        -5.2374341807        2.5301275153       -0.9778612292
 H        -5.9178166868        1.0059323803       -1.1483850228
 H       -11.9780328119       -3.7884594748       -2.6218868537
 H       -10.9883668799       -2.4076382493       -3.3152033923
 H       -11.8247836357       -2.3810297961       -1.6384270274
 H       -11.0883832157       -3.7149485917        0.1929056471
 H        -9.8183627475       -4.9548263803       -0.0548271361
 H       -11.3237278052       -5.0396341434       -0.9397990484
 H        -6.3002222808       -8.3097959473       -6.8151105892
 H        -6.2895971337       -6.8465996043       -7.7404762780
 H        -7.7890588615       -7.3988870213       -6.8964400402
 H        -4.1919820295       -6.1566788196       -6.3607755302
 H        -4.5735836170       -7.6568278740       -5.4490985407
 H        -4.4816066402       -6.0849988780       -4.6214117431
 H       -11.3088432640       -1.1591291128       -7.5529588225
 H       -10.4475339443        0.1427069667       -6.4610690077
 H       -10.1190363019       -1.6030228274       -6.3170019633
 H        -9.0804215204       -0.7509502718      -10.3491978286
 H        -9.9677180521        0.4921851851       -9.5802737754
 H       -10.6970554930       -1.0421678450       -9.6181881972
 H        -5.6178945173       -0.5655000121       -5.5344573893
 H        -4.7455086943       -0.1023074569       -4.0352509606
 H        -4.2785689517       -1.7117346926       -4.9944163068
 H        -2.9570911067        1.6849993572       -5.0428268995
 H        -4.6447887370        1.9368801235       -5.6772602501
 H        -3.2656612292        2.0109877253       -6.8338652001
 H         3.0172043324       -0.5217651384       -3.2960323167
 H         1.5196395996       -0.9312303330       -3.7186635925
 H         2.0465792408        0.7173041942       -3.9508757378
 H         4.1559881822       -0.0309776504       -6.9401417494
 H         4.9648509941       -0.5182510405       -5.5530647653
 H         3.9618525882        0.9835394692       -5.5492740067
 H         1.4752884464       -5.1761553113       -4.9553134057
 H         0.4590096188       -6.6584807984       -5.0480545525
 H        -0.3000304502       -5.1399506369       -5.0984123922
 H         1.2340299928       -6.9568382904       -8.6706016940
 H         0.5488075492       -7.7676144041       -7.3725824659
 H         2.1153244296       -7.3123970487       -7.3079599023
 H        -5.5170460541       -4.3101781165      -12.4109756979
 H        -5.1183393446       -3.4164154671      -10.9514728869
 H        -6.4657686853       -4.7071140989      -11.0337281456
 H        -5.6175917229       -6.8826313178      -10.0028715671
 H        -4.3843534493       -7.8203127321      -11.0992787000
 H        -5.9961954223       -7.2008045955      -11.7079676453
 H        -1.1712265174       -6.6756146741      -16.9040577100
 H         0.3846959090       -5.9214316710      -16.9025592894
 H        -0.9717990937       -5.4900649224      -18.1399605998
 H         0.8651269200       -4.5598371135      -15.5072817095
 H        -0.2440759932       -5.1998930205      -14.2601417557
 H        -0.2400230990       -3.4332946640      -14.5226169384
 H        -5.0399800092       -0.8567399801      -19.8225080284
 H        -5.3804627014        0.8326232352      -19.6921367852
 H        -5.0406602260       -0.0804274605      -18.2677711994
 H        -2.9870063102        1.6555188926      -21.4051493954
 H        -3.1161856913       -0.1132197011      -21.8066312707
 H        -1.6876805470        0.6914419509      -21.0598405865
 H        -0.9576329928        6.5217423968      -18.3758330615
 H        -2.1092735432        6.8607753086      -19.5113823778
 H        -0.5167376507        7.5573691358      -19.6662778229
 H        -0.6859645482        4.7271149163      -22.3900565190
 H         0.4168808601        6.0087799990      -21.9334364380
 H        -1.2985031356        6.4094724986      -22.0834138825
 H         0.7578671721        1.8767729746      -16.4172755039
 H         2.1846180369        2.2123224871      -15.5621409460
 H         1.8304215518        0.5405968124      -15.7509037341
 H         4.6652600915        2.5430622719      -18.1505633346
 H         4.6900199407        2.0645635894      -16.5127156085
 H         3.7322678559        3.3808637565      -17.0663273794
 Na       -0.2197847564       -0.3279232900      -17.6282845242
 Na       -3.4536363007       -3.3580858722       -6.9248112980
