232

 C         4.1524948266       -0.1397120682      -18.7770680074
 C         2.8634509896        0.2519355030      -18.0922984560
 O         1.9252241096       -0.4831949063      -18.1931421687
 C         2.6532117009        1.5789657354      -17.4901891764
 C         1.7065217648        2.2997587903      -18.6107183243
 O         0.6330953400        1.7667774994      -18.8569294001
 C         2.2607894019        3.3902554446      -19.4496581192
 C         1.2845897341        4.0764608415      -20.4361142756
 C         0.3423060411        5.0240629650      -19.6710500175
 O         0.6747608855        5.3108341315      -18.5497243862
 C        -1.0022592510        5.4568507405      -20.2402927208
 C        -1.9065073072        4.0936043648      -20.1086034509
 O        -2.1648698598        3.4517979181      -21.0804225508
 C        -2.6425325600        3.9507268102      -18.7864328164
 C        -3.6837245237        2.7928739324      -18.7876533272
 C        -2.8185171702        1.5274495067      -18.5072962019
 O        -1.8860543526        1.4590443942      -17.6869851772
 C        -3.3872602492        0.1836372545      -19.2870946878
 C        -2.5448902341       -1.0287576480      -19.0990585409
 O        -1.3411443313       -0.9110895634      -19.3843831065
 C        -3.2360903026       -2.4282320319      -18.8314244436
 C        -2.1608186109       -3.4339083995      -18.2860377308
 C        -1.4048849084       -3.2430582249      -16.9849982565
 O        -0.8958116506       -2.1695613399      -16.6347363745
 C        -1.1574649223       -4.5041440837      -16.0486704145
 C        -2.4007684636       -4.6820697048      -15.0502863457
 O        -3.1857668658       -3.7640714039      -14.9524423439
 C        -2.7215674535       -6.1563889362      -14.6585588482
 C        -3.9402863242       -6.1752678150      -13.7661295840
 C        -3.4461277726       -5.6454410262      -12.3548074609
 O        -2.3095834664       -5.2465306087      -12.2155354172
 C        -4.3958203810       -5.6139941424      -11.1275729130
 C        -3.6479233485       -5.1984181749       -9.7664587695
 O        -4.0942658652       -4.2389374627       -9.1509622224
 C        -2.5799677114       -6.1028457003       -9.1778253545
 C        -1.2017489123       -5.4376670690       -8.9368173614
 C        -0.6913804954       -5.1961702379       -7.4378879976
 O        -1.4607559588       -4.5931048804       -6.6553162966
 C         0.6911045829       -5.6977185465       -6.9643268089
 C         1.6937888273       -4.4954822931       -7.3279843755
 O         1.2015245196       -3.6808824182       -8.0514054272
 C         3.0839240361       -4.3844974178       -6.7270275418
 C         3.6212984601       -2.8604147880       -6.6572556219
 C         3.1065109057       -2.2831390609       -5.3526345734
 O         3.0890965065       -2.9750142639       -4.3713187197
 C         2.7022811362       -0.7657059667       -5.3348644740
 C         1.7183324602       -0.4318461143       -6.4435856149
 O         1.9444591636        0.2176671466       -7.4318915372
 C         0.2321811632       -0.9852627526       -6.2672993179
 C        -1.0451171773       -0.0337918973       -6.6067536837
 C        -2.2644843688       -0.7750396238       -6.1081245789
 O        -2.2442429327       -1.9540505325       -5.7055671414
 C        -3.6451704681       -0.0111798247       -6.0594259403
 C        -4.4466175259       -0.4067694282       -7.3883865075
 O        -4.3292105140       -1.5086326830       -7.8523012283
 C        -5.4056479362        0.5471366987       -8.1581782021
 C        -6.6721010233       -0.2177209159       -8.7096581241
 C        -7.8717233222       -0.2456556931       -7.6855235630
 O        -7.6692866005        0.2862079002       -6.6114451028
 C        -9.1992867837       -0.9728029910       -8.1493119654
 C        -8.8737198547       -2.4938352343       -8.0631557594
 O        -8.9257008770       -3.1144093600       -9.0958626921
 C        -8.5888389800       -3.1776359537       -6.6671411107
 C        -8.1676854412       -4.6381146135       -6.9951636554
 C        -6.8353575191       -5.0386329980       -6.2859739057
 O        -5.9867844400       -4.1281332641       -6.1134649710
 C        -6.5241898142       -6.4324596504       -5.8327978759
 C        -7.3031045182       -6.6330486789       -4.2947009672
 O        -7.9247270241       -7.6101905385       -4.1537514452
 C        -7.0314108194       -5.5835252534       -3.2693180481
 C        -8.1296619063       -5.2964453757       -2.2724997301
 C        -9.0116234587       -4.2068694104       -2.8058507886
 O        -9.1219062884       -3.9111129541       -3.9804781182
 C        -9.7885142861       -3.3968022272       -1.7187481683
 C        -8.6557135375       -2.3740630415       -1.0785656759
 O        -7.8657735673       -2.6651929755       -0.2135335854
 C        -8.8754952349       -0.8610976230       -1.3860185356
 C        -8.0380348883        0.0216037415       -0.4948031885
 C        -8.3339575321        1.4470785374       -0.7096587984
 O        -9.4948978838        1.8182532760       -0.8761005761
 C        -7.1792181144        2.4970536497       -0.8297455041
 C        -7.3880370163        3.1154077312       -2.3480529084
 O        -6.8021191736        2.5976527929       -3.3011164105
 C        -8.4274891519        4.1912865818       -2.6016653743
 C        -7.5993538930        3.5129781476        0.2968855492
 C        -5.6446651399        2.0733949143       -0.5761562973
 C       -10.9507273576       -2.6714511184       -2.3594036398
 C       -10.2645950224       -4.2870205703       -0.4482707764
 C        -7.1398216146       -7.4973879281       -6.7622353597
 C        -5.0318560593       -6.8061081500       -5.6207117267
 C       -10.3574174995       -0.5937505256       -7.1258803727
 C        -9.7025152028       -0.5648393202       -9.5887008811
 C        -4.4347643568       -0.4408388429       -4.8239285214
 C        -3.4143702870        1.5429978029       -6.0132627430
 C         2.1312048888       -0.2523706858       -3.9848404346
 C         4.0307392560        0.0286382465       -5.6051953270
 C         0.6087498981       -6.0943727045       -5.4684286289
 C         1.1727526609       -6.8927706051       -7.7596278805
 C        -5.5945252447       -4.6751269687      -11.4741733974
 C        -4.9282672238       -7.0561767066      -10.8127090914
 C        -0.9243934381       -5.8405554861      -16.8467451027
 C         0.1453342981       -4.3472114182      -15.1471751458
 C        -4.8834128309       -0.0577014615      -18.9342030378
 C        -3.1088574020        0.6142974784      -20.7578981568
 C        -1.5615615679        6.5924579117      -19.4025719112
 C        -0.8939401109        5.7739641464      -21.8000622247
 C         1.8901347755        1.5829471093      -16.1937519262
 C         3.9725420519        2.3641926655      -17.2608947051
 H         4.2881690827       -1.2447649223      -18.6921924667
 H         5.0194431165        0.3433683646      -18.3213661108
 H         4.2098132760        0.2111666714      -19.8034929378
 H         3.2311705504        3.0491236366      -19.9261017499
 H         2.6736366842        4.1714141635      -18.7566498507
 H         0.7360937778        3.3552697187      -21.0840651489
 H         1.8638545919        4.5826026161      -21.1120043196
 H        -3.2702343626        4.8700533544      -18.7851687306
 H        -1.9412311128        3.9255034641      -17.9678718892
 H        -4.2714165971        2.7996687194      -19.7095407252
 H        -4.3594995851        2.7979003822      -17.9256742652
 H        -3.5641521359       -2.8191265792      -19.7978881799
 H        -4.1121423611       -2.2494668712      -18.2433800516
 H        -1.4462979225       -3.4925830294      -19.1378233341
 H        -2.6372600901       -4.3787793901      -18.5191961035
 H        -1.8202561574       -6.5544058320      -14.1130436845
 H        -2.8823612265       -6.7586135690      -15.6353325171
 H        -4.5169022604       -7.1067944751      -13.7004679188
 H        -4.7366502323       -5.5792567773      -13.9921355430
 H        -2.6127148249       -6.9831768592       -9.8502024715
 H        -2.8088637005       -6.5626544521       -8.2479868389
 H        -1.0389353125       -4.4795338679       -9.4844083569
 H        -0.4416684238       -6.0126513084       -9.4677069736
 H         3.7340049542       -5.0389681687       -7.2494664681
 H         3.0281262373       -4.8442097171       -5.6988156620
 H         3.2636731222       -2.3728469744       -7.5249767972
 H         4.7058537325       -2.9712502855       -6.6676724371
 H         0.1231450055       -1.5545398867       -5.2648304756
 H         0.1145586197       -1.7875784837       -6.9428720442
 H        -1.2091117952        0.0386032094       -7.6812652701
 H        -1.1134310567        0.9969515195       -6.2324424786
 H        -4.9237849956        1.0438248883       -8.9728884535
 H        -5.7989708844        1.3128959391       -7.4920713147
 H        -6.3776670332       -1.1895088717       -8.9234749165
 H        -7.0870039426        0.2304689971       -9.6263512240
 H        -9.4652336042       -3.1643071840       -6.0797360405
 H        -7.7246189456       -2.7831570363       -6.1234471660
 H        -7.9529239189       -4.7133408687       -8.1137378158
 H        -8.8827679047       -5.4351075474       -6.9016412129
 H        -6.6155093341       -4.7174473043       -3.8516694630
 H        -6.1398636500       -5.9857371129       -2.7350810405
 H        -7.6408244832       -5.0517309081       -1.3017891743
 H        -8.8843396436       -6.1379278113       -2.1021582000
 H        -9.9077943781       -0.5152549197       -1.2874041867
 H        -8.6640353035       -0.6095143987       -2.4260900649
 H        -6.9863921225       -0.3449529768       -0.4006176317
 H        -8.5229241018       -0.0531810196        0.4993679527
 H        -7.9618475376        5.1950187902       -2.7242483822
 H        -9.2324992928        4.1758935578       -1.8615464553
 H        -8.8146781620        4.2213791851       -3.6465421718
 H        -6.8726873955        4.3604603846        0.5259774550
 H        -7.9211796865        3.1411175280        1.3206253542
 H        -8.5976048569        3.9609356366       -0.0189373398
 H        -5.5636634985        1.5089576448        0.4116910778
 H        -5.0062099446        2.9528663803       -0.6812730650
 H        -5.2621484239        1.2371492853       -1.2674387835
 H       -11.6967667482       -3.4192127404       -2.6277479935
 H       -10.6488323507       -2.1192343191       -3.1872806717
 H       -11.4629588640       -1.9910814070       -1.6781352622
 H       -11.0770165615       -3.7508346126        0.0977366485
 H        -9.4035758304       -4.4899891072        0.1762990464
 H       -10.5632771111       -5.2396248949       -0.8970653088
 H        -7.8202221365       -8.0814701035       -6.2027193643
 H        -6.2539211798       -8.1487122584       -7.1122505517
 H        -7.6288527166       -7.0121294988       -7.6215097610
 H        -4.5131670563       -7.0436202703       -6.5639471449
 H        -5.0237092066       -7.7222325204       -5.0957783095
 H        -4.5575210730       -5.9619513155       -5.0684433964
 H       -11.2000085632       -1.2105227619       -7.1944083869
 H       -10.5826568436        0.4520346844       -7.2375180092
 H        -9.8246454206       -0.6799121097       -6.1760617105
 H        -9.0978000953       -0.6492401592      -10.4142124267
 H       -10.0570417091        0.4447657494       -9.5936216163
 H       -10.6628961025       -1.1169099426       -9.7995268028
 H        -5.2111833626        0.2850511701       -4.6475800412
 H        -3.8358378627       -0.6587109253       -3.8427483180
 H        -4.6566527079       -1.4492807646       -5.2072073654
 H        -3.0038492319        1.7910300717       -5.1093046140
 H        -4.3975695650        2.0087912397       -6.0199803993
 H        -2.8747794416        1.9115874362       -6.8906069764
 H         2.7251683035       -0.5073810402       -3.1214127261
 H         1.2402802731       -0.7566669001       -3.7263149732
 H         2.0841544450        0.8900239519       -3.9092450782
 H         4.6919117211       -0.4114864592       -6.3317398941
 H         4.5976597973        0.0371126420       -4.5822437318
 H         3.7482510820        1.0636946736       -5.9198462137
 H         1.1444286854       -5.3626885877       -4.8339020430
 H         1.0766060651       -7.0677057626       -5.3463684855
 H        -0.4097200052       -6.2480367980       -5.1335075842
 H         1.1929021496       -6.8190250069       -8.8814249775
 H         0.5924187352       -7.8025179052       -7.7147940658
 H         2.2837519132       -7.1518890347       -7.5419210864
 H        -6.0857466035       -5.0501784954      -12.3412368577
 H        -5.2877052341       -3.6200649293      -11.6544419915
 H        -6.3373470918       -4.7023095917      -10.6716425389
 H        -5.5374514480       -6.9993713186       -9.9286309035
 H        -4.0854051831       -7.6603257363      -10.7330355959
 H        -5.4153430913       -7.4993076227      -11.6451249529
 H        -0.4463887795       -6.5702201379      -16.2485739673
 H        -0.1543607397       -5.6453720946      -17.5804895769
 H        -1.9556381600       -6.2116219300      -17.1209820446
 H         0.9774357080       -4.2025140940      -15.8225355021
 H         0.3839181988       -5.1809361647      -14.5708998539
 H         0.1272262906       -3.4531182313      -14.5299429350
 H        -5.2937740356       -0.8277338915      -19.5756888017
 H        -5.5707547516        0.7969387391      -18.9498532142
 H        -4.9544535187       -0.4976770117      -17.9436113881
 H        -3.8268738926        1.4854599365      -21.0283041066
 H        -3.4037774846       -0.0403258760      -21.4865857043
 H        -2.1241374343        1.0187043448      -20.9646772272
 H        -1.4451919905        6.3088877517      -18.3525895293
 H        -2.5789154356        6.8489864712      -19.6122692588
 H        -1.0489613758        7.5508038544      -19.4112839648
 H        -0.2241753841        5.0445984743      -22.2244921287
 H        -0.3257869111        6.6477863349      -22.0001868886
 H        -1.8056507595        5.7113979358      -22.3151040967
 H         0.9766065035        0.9698035137      -16.2475350138
 H         1.5791367853        2.5470668102      -15.9070362518
 H         2.5177152006        1.3149458257      -15.3389149849
 H         4.7147551607        2.4466408631      -18.0113274374
 H         4.6350064324        1.9006746503      -16.5554811555
 H         3.8146457623        3.3444965166      -16.8166616989
 Na       -0.1232359010       -0.0695250714      -17.7867388436
 Na       -3.6813509542       -3.7303309940       -6.7817282754
