232

 C         4.5027155909       -0.3150777713      -18.4868917644
 C         3.1095076226        0.1697492629      -18.1459974168
 O         2.2036420325       -0.6673854384      -18.0225633479
 C         2.7352973324        1.8352328187      -17.7232214214
 C         1.7121122734        2.4319736303      -18.6961760459
 O         0.6871630271        1.8724746159      -18.9970391891
 C         2.0617726676        3.7915638730      -19.2446140700
 C         0.9464998636        4.4181566449      -20.1156760150
 C        -0.1040857800        5.3488084688      -19.4580372952
 O         0.1660385993        5.8431052051      -18.3740875323
 C        -1.4268322215        5.5974946448      -20.3713580969
 C        -2.2060616301        4.2248078793      -20.1218835087
 O        -1.9340335398        3.2178223894      -20.7627616707
 C        -3.0291373613        4.0619058908      -18.8034261854
 C        -3.9576490972        2.7790715382      -18.9825832121
 C        -3.1953776253        1.4757743045      -18.7133930194
 O        -2.1827524782        1.4973263009      -18.0761158982
 C        -3.8536868318        0.1812248714      -19.2465205756
 C        -2.7604350967       -0.9437389964      -19.1345293817
 O        -1.7408292579       -0.7889766337      -19.7504618714
 C        -2.9727984484       -2.2367502346      -18.2727862240
 C        -1.9007152087       -3.3428279036      -18.3167183680
 C        -1.0797926812       -3.1227944189      -17.0881375405
 O        -0.5935099495       -2.0481272982      -16.8227065987
 C        -0.8802662977       -4.4018884058      -16.0255262284
 C        -2.3141759745       -4.5994671008      -15.3198263811
 O        -3.2095221831       -3.8039785245      -15.4101561172
 C        -2.4325956229       -5.8072959131      -14.4073892255
 C        -3.7012527031       -5.7672514051      -13.5253405368
 C        -3.3332919750       -5.6538211594      -12.0359704590
 O        -2.2163970739       -5.2995167775      -11.7027899724
 C        -4.5068449289       -5.8100066869      -10.9631478331
 C        -3.8393916884       -5.5092499812       -9.5639350160
 O        -4.3573655151       -4.6053907477       -8.9321558465
 C        -2.6630163122       -6.4183336837       -9.0604946758
 C        -1.4065778817       -5.5499073907       -8.8129829443
 C        -0.9733694513       -5.3588716497       -7.3515726136
 O        -1.7104914904       -5.0724689132       -6.4900566888
 C         0.6098271797       -5.5919372905       -7.0459202110
 C         1.4647419881       -4.2765131678       -7.3826734281
 O         1.1173053094       -3.4087906349       -8.1986202012
 C         2.9644972304       -4.3005647287       -6.9217255072
 C         3.3818182272       -2.8552306732       -6.5478445681
 C         2.8043691648       -2.3184220105       -5.2130136774
 O         2.2754569339       -2.9995825103       -4.3450462513
 C         2.6913233305       -0.6182851925       -5.2760896515
 C         1.5687600598       -0.4304544637       -6.3258683449
 O         1.6360458837        0.2661098335       -7.3183080098
 C         0.2888052737       -1.2260882593       -6.0234818557
 C        -0.9801416840       -0.2746158371       -5.8377628502
 C        -2.2874331110       -0.9696890681       -6.2266866466
 O        -2.3893203231       -2.1498002087       -6.3142371441
 C        -3.5723426402        0.0308600981       -6.2943344077
 C        -4.6078346545       -0.5316027858       -7.4088834717
 O        -4.9050544794       -1.7011617215       -7.5016063248
 C        -5.2253914737        0.4821256988       -8.2887158024
 C        -6.5065691400        0.0084503212       -8.9106442675
 C        -7.4240932442       -0.4634806804       -7.7201674450
 O        -7.0561095807       -0.6553578791       -6.5785366609
 C        -8.9051149769       -1.0465599965       -8.1281367693
 C        -8.6610384214       -2.5593917327       -8.0627637415
 O        -8.3520208414       -3.2041444863       -9.0573289560
 C        -8.7724647046       -3.2214613087       -6.7353408113
 C        -8.5460146049       -4.7456160146       -6.6846490688
 C        -7.0598551941       -5.1166428677       -6.3989913923
 O        -6.1980598910       -4.2633092980       -6.5338278940
 C        -6.8633500737       -6.5910577722       -5.7459537441
 C        -7.4403639420       -6.4819673332       -4.3473229782
 O        -8.5690705860       -6.9191009611       -4.1419988620
 C        -6.5986542217       -5.9037743456       -3.1240486750
 C        -7.7446217530       -5.4356747180       -2.2286218673
 C        -8.5404326729       -4.2034720383       -2.6295703374
 O        -8.5982903821       -3.8772718517       -3.8057719147
 C        -9.4279837157       -3.4677212590       -1.5419110419
 C        -8.5016668341       -2.4417840811       -0.9079120300
 O        -7.4827912271       -2.7890503187       -0.3220783819
 C        -8.8122016338       -0.8801234882       -0.8209378518
 C        -7.5760866752        0.0049459411       -0.9171903480
 C        -7.9809111768        1.4686698399       -0.8142768742
 O        -9.1263739460        1.7389486306       -0.6314007401
 C        -6.8367178113        2.6808786801       -0.9731696473
 C        -7.0361605108        3.1244200452       -2.4134071715
 O        -6.3144603314        2.8877671375       -3.3624995187
 C        -8.3205758283        3.8806153199       -2.6239675690
 C        -7.4675371619        3.7027381797        0.0061308802
 C        -5.3959103911        2.2485524227       -0.7351580919
 C       -10.5795915235       -2.7726087890       -2.2995591945
 C        -9.9792363327       -4.4020067344       -0.4712831798
 C        -7.6216097008       -7.6327768049       -6.6247342938
 C        -5.3175570545       -6.8120140933       -5.7557065560
 C        -9.9836046631       -0.5844285991       -7.1179455367
 C        -9.2995799767       -0.6030779017       -9.5696307186
 C        -4.2981090240       -0.1390972702       -4.9626172621
 C        -3.1181454032        1.4213353788       -6.7590709301
 C         2.0443390503       -0.0890220889       -3.9565934330
 C         4.0084355840       -0.0018113379       -5.7509908043
 C         0.7737410071       -6.2152373965       -5.5884195531
 C         1.2674359192       -6.5927668000       -8.0719585723
 C        -5.7271950902       -4.9559379805      -11.2754914903
 C        -4.8624773576       -7.3361745220      -11.0219500313
 C        -0.3945243531       -5.6832592431      -16.7916919075
 C         0.1472738448       -4.0215197583      -14.8797584404
 C        -5.1187483516       -0.0044068988      -18.5115922402
 C        -4.0733547428        0.3720516420      -20.7299639794
 C        -2.2201123949        6.8041627534      -19.8747159700
 C        -1.0629874582        5.6367429385      -21.8337205794
 C         2.1670164751        1.7597309161      -16.3262379517
 C         4.0627340743        2.6572609490      -17.6503662741
 H         4.4433729826       -1.0755959410      -19.2410417575
 H         4.9921859494       -0.7400196031      -17.5666057896
 H         5.1867154006        0.4220066277      -18.9662570316
 H         2.8473943713        3.5489299051      -20.0059416002
 H         2.6036689532        4.4772536174      -18.5359848104
 H         0.5746274464        3.6622350191      -20.7314598915
 H         1.4909952054        5.1255107674      -20.8127076900
 H        -3.6685882813        4.9243009392      -18.5876854108
 H        -2.3027949314        3.9572599250      -17.9647235548
 H        -4.5525808451        2.7783559851      -19.9114097337
 H        -4.7408245250        2.8062679734      -18.2300482482
 H        -3.9522206576       -2.4651936112      -18.5472979285
 H        -3.0520145911       -1.9804483489      -17.1872180525
 H        -1.3327205514       -3.3359641721      -19.2435922965
 H        -2.5229187258       -4.3080493272      -18.3551311032
 H        -1.5557240030       -5.8546626339      -13.6776862154
 H        -2.6075062347       -6.6503994658      -15.0956209397
 H        -4.3355676567       -6.6398061341      -13.5975039806
 H        -4.4535676915       -5.0319919651      -13.7707857264
 H        -2.4660737871       -7.1868177294       -9.7512784698
 H        -3.2062045595       -6.7445884586       -8.1629507272
 H        -1.4149627261       -4.5907637523       -9.3688631545
 H        -0.6932216259       -6.1340368859       -9.4085810723
 H         3.4863224190       -4.6386449684       -7.9008461462
 H         3.1982210725       -5.0068233197       -6.1863567586
 H         3.2208734077       -2.2761030718       -7.4477832317
 H         4.4273905123       -2.9581619096       -6.3395223563
 H         0.4138762409       -1.9452262961       -5.2397082687
 H         0.2245691094       -1.8684511029       -6.9646612689
 H        -0.9224433027        0.5403183531       -6.5004167997
 H        -1.1226173072        0.1325831704       -4.7969926113
 H        -4.5615996497        0.7448924633       -9.1142278973
 H        -5.4845497378        1.3517171468       -7.7997986462
 H        -6.3925023482       -0.8108897383       -9.6408662642
 H        -6.9288015511        0.7831683408       -9.4478022616
 H        -9.7337993660       -3.0333037254       -6.2766394804
 H        -7.9917651128       -2.7238694790       -6.1370627084
 H        -8.7932446551       -5.1964124836       -7.6772602564
 H        -9.2181062874       -5.2543487025       -5.9626453071
 H        -5.7368473760       -5.2580031533       -3.3419571622
 H        -5.9761990433       -6.7997620591       -2.7875361405
 H        -7.4313465398       -5.2766945142       -1.1863522617
 H        -8.5236031619       -6.2517181549       -2.1054998998
 H        -9.4010270898       -0.6529444473        0.0283672163
 H        -9.5375184545       -0.6439793242       -1.6130624022
 H        -6.9884762045       -0.1426701274       -1.8462839886
 H        -6.8108144405       -0.3829810011       -0.2460026205
 H        -8.4767882272        4.7252698391       -1.9257720048
 H        -9.2233637784        3.2166578304       -2.5526965172
 H        -8.1820279733        4.4791578648       -3.5226385544
 H        -7.1776395862        4.7661634556       -0.2751021976
 H        -7.0926106756        3.4269427269        1.0358063271
 H        -8.5795918912        3.8650386906        0.0067086098
 H        -5.2839505121        1.3999697827       -0.0055724305
 H        -4.7145553314        2.9852472385       -0.1930527269
 H        -4.9417270463        1.8530971738       -1.6601166660
 H       -11.3519669272       -3.4657610397       -2.5798690222
 H       -10.3331970452       -2.2126392153       -3.2100223431
 H       -10.9821632777       -2.0166654715       -1.7099699828
 H       -10.3791769397       -3.7423690410        0.3171107242
 H        -9.1454635582       -5.0194297053       -0.0506497056
 H       -10.7554461942       -5.0063949235       -0.9797791086
 H        -8.5515512517       -7.1578932256       -7.1209757023
 H        -7.9587627980       -8.4288540514       -5.9893183669
 H        -6.9208160258       -8.0882354347       -7.3397221294
 H        -4.9731495874       -6.2891110140       -6.6993402606
 H        -4.9951137300       -7.8818132162       -5.8250231302
 H        -4.8463355950       -6.3852499995       -4.8877433007
 H       -10.9173494523       -1.0081825729       -7.4973269594
 H       -10.1714548052        0.4342769025       -7.1001785441
 H        -9.7776288664       -1.0182076015       -6.1943460323
 H        -8.6811845020       -1.0688967732      -10.3821616358
 H        -9.3123914222        0.4360365035       -9.7620367244
 H       -10.1890822438       -1.0311991848       -9.8294332313
 H        -5.4318085355       -0.1080590322       -5.2795713264
 H        -4.0222988820        0.6902902290       -4.3102194350
 H        -4.0416854673       -1.1223390250       -4.3865222738
 H        -2.5597623765        1.9153722108       -5.9332321721
 H        -3.9100710438        2.0649833469       -6.9650218497
 H        -2.4550391542        1.3527586813       -7.5908697210
 H         2.7926247058       -0.1803342016       -3.1329983768
 H         1.0862778743       -0.6396039801       -3.6690120109
 H         1.8418520085        0.9398167312       -4.0222551443
 H         3.9892500007       -0.0061076653       -6.9086423324
 H         4.8028073026       -0.5197986415       -5.3042894410
 H         4.1545675883        1.0837760254       -5.5000575906
 H         0.0469718220       -5.7261043869       -4.9632056484
 H         1.7156765863       -5.9601494848       -5.1330911419
 H         0.5356440713       -7.3183798149       -5.5768319321
 H         1.0906467693       -6.4122869607       -9.1858509158
 H         0.9238463205       -7.7129178884       -7.8890197060
 H         2.3698251241       -6.6266059589       -7.9380666424
 H        -6.6471856651       -5.5438459069      -11.4103189574
 H        -5.5538961212       -4.3970462040      -12.1699151539
 H        -5.8967535098       -4.2248814815      -10.5189636832
 H        -5.1077263055       -7.7691981902      -10.0946484878
 H        -3.9324587359       -7.8705988396      -11.2828504200
 H        -5.5792139521       -7.5092522415      -11.7830465003
 H        -0.8780447400       -6.5524785635      -16.2652202024
 H         0.7255013681       -5.8166149374      -16.8665560396
 H        -0.7201386463       -5.6432652312      -17.8116369716
 H         1.1244703700       -3.9974696472      -15.3200838474
 H         0.1564379621       -4.7042370268      -14.0505123960
 H         0.0708614949       -3.0490378408      -14.5194050604
 H        -5.6501884506       -0.8007924031      -19.0098077419
 H        -5.7276506202        0.8860990239      -18.5763351789
 H        -4.9196615241       -0.2054046982      -17.4387342842
 H        -4.4432258198        1.3376067458      -20.8684472701
 H        -4.6499186555       -0.3034684302      -21.4681254230
 H        -3.0422969108        0.3071023503      -21.1768773581
 H        -2.4290097245        6.7992454306      -18.8149224496
 H        -3.1739017735        6.9452030272      -20.4091878347
 H        -1.7225610667        7.7225941600      -20.0906247325
 H        -1.0214563847        4.7155215603      -22.3569823578
 H        -0.0755014007        6.0445355773      -21.8491847138
 H        -1.6884107745        6.3040533695      -22.4695637852
 H         1.3622096939        1.0962428855      -16.1582942504
 H         1.9256003341        2.7196476995      -15.8674394946
 H         3.0209808806        1.3813622986      -15.7030706584
 H         4.6704181628        2.8981671750      -18.5560868421
 H         4.8263470631        2.2150935052      -17.0173423185
 H         3.9489638313        3.5718109372      -17.1286444121
 Na       -0.2019237352       -0.0924619898      -18.0633930487
 Na       -3.9326709336       -3.8324988726       -6.6734233212
