232

 C         4.4013698143       -0.1656565487      -18.4053055176
 C         2.9507857221        0.3887504088      -18.0959476292
 O         2.0064690520       -0.3081965572      -18.1553425787
 C         2.8026080708        1.9700905557      -17.6725652661
 C         1.7897983036        2.5955672289      -18.6133274303
 O         0.7868928930        1.9331160338      -18.9038319701
 C         1.9163131446        3.9692490321      -19.0199160180
 C         0.9015737862        4.4747020899      -20.0510567662
 C        -0.1388013978        5.2855522243      -19.5087028710
 O         0.0284913776        5.8811895695      -18.4520714999
 C        -1.4694918099        5.4368612441      -20.3122991985
 C        -2.2354178009        4.0829507230      -20.0270008556
 O        -2.1706885140        3.1378822638      -20.7641614367
 C        -3.2870023100        4.1012199574      -18.8816552304
 C        -4.1181125734        2.8898905820      -18.6809802164
 C        -3.2734880422        1.5397920538      -18.7887821422
 O        -2.1041106839        1.5644235467      -18.4275868214
 C        -3.9145586186        0.1389466559      -19.2618402904
 C        -2.9400683350       -0.9840561427      -19.0980762099
 O        -1.9180200353       -0.9487660503      -19.7745110544
 C        -3.1936952492       -2.1881293464      -18.2276564962
 C        -1.9121365994       -3.0665007063      -18.1045395750
 C        -0.9166926699       -2.9126404077      -16.8697826257
 O        -0.1745098110       -1.9434867993      -16.7524722068
 C        -0.7173363866       -4.1561822356      -15.9836731238
 C        -2.1558742520       -4.5814400929      -15.4247109332
 O        -3.1357360242       -4.0005560570      -15.8655748533
 C        -2.3428039760       -5.6842168443      -14.4288570857
 C        -3.6603601936       -5.6642909515      -13.6414267697
 C        -3.4713305585       -5.6500450953      -12.0551905413
 O        -2.3458947553       -5.4313400952      -11.6902307558
 C        -4.5693561659       -5.9026076101      -10.9790728741
 C        -3.9270430562       -5.6674957544       -9.5961391026
 O        -4.3965373349       -4.7711867567       -8.8557141499
 C        -2.6719979309       -6.3795123774       -8.9947777528
 C        -1.4920852185       -5.3598019825       -8.7838064136
 C        -0.8949822444       -5.4722876269       -7.3483275492
 O        -1.7496657412       -5.3642833412       -6.3802797229
 C         0.5947631388       -5.7041217772       -7.0266741286
 C         1.3952868088       -4.3160347671       -7.3566287600
 O         0.9376551858       -3.4183413537       -7.9825893478
 C         2.9060464311       -4.2621199086       -6.8706281974
 C         3.4519471498       -2.8753860382       -6.5321189752
 C         2.7049341420       -2.2629135313       -5.3146348525
 O         2.2414198381       -2.9722774931       -4.4303493491
 C         2.6329682069       -0.7506078448       -5.2570266815
 C         1.4402271759       -0.4281435618       -6.2454692222
 O         1.5044568101        0.4180043444       -7.1104815597
 C         0.1443051469       -1.2084884756       -6.1166866873
 C        -0.9212612418       -0.2662853880       -5.8218814455
 C        -2.3099606377       -0.8618434912       -6.2310659373
 O        -2.3864826606       -2.0919347182       -6.3552701353
 C        -3.5967517563        0.0484949068       -6.3458709516
 C        -4.5405728390       -0.5187710838       -7.4082715270
 O        -4.5807844881       -1.7131630187       -7.6073330647
 C        -5.1328552287        0.3978108419       -8.4437899835
 C        -6.5747996041        0.0005628881       -9.0103043575
 C        -7.4826111300       -0.4542200701       -7.8377858928
 O        -7.1416571049       -0.4147571713       -6.6795417007
 C        -8.8662496896       -1.0954013848       -8.1595482076
 C        -8.6447758338       -2.6942617547       -8.0271675083
 O        -8.2120566044       -3.3614434336       -8.9626651969
 C        -9.0063567676       -3.4010439351       -6.7005789088
 C        -8.6420006162       -4.8785264403       -6.7981427614
 C        -7.1739965619       -5.1920691366       -6.4257551793
 O        -6.3487842926       -4.2916833028       -6.6555425905
 C        -6.8604271939       -6.6987589695       -5.7590144933
 C        -7.6765382020       -6.5430355409       -4.3756654514
 O        -8.8741067765       -6.7597619772       -4.4715782579
 C        -6.8232127908       -6.0781819823       -3.1851640715
 C        -7.3316062685       -5.3726214176       -1.9495515083
 C        -8.3492706926       -4.3389424303       -2.4188227217
 O        -8.2755482900       -4.0288349541       -3.5808437394
 C        -9.2723395598       -3.4830244756       -1.4564842753
 C        -8.3160030358       -2.3273247042       -0.7297107175
 O        -7.3511912875       -2.6851533491       -0.1246941706
 C        -8.7643406052       -0.9020944888       -0.8463687691
 C        -7.5502523197        0.0267821084       -1.0666773050
 C        -7.9063153227        1.5453431108       -0.7675395973
 O        -9.0287324824        1.8093954574       -0.3805645598
 C        -6.7838169674        2.7095533791       -1.0260029588
 C        -7.0376407956        3.1677955167       -2.5151055759
 O        -6.0625376204        3.0658335392       -3.2161302558
 C        -8.2602451006        3.8881600827       -3.0801171457
 C        -7.0251401507        3.8294006001        0.1107352824
 C        -5.4352478613        2.1413827063       -0.7995606200
 C       -10.4423917387       -2.9408844599       -2.2833727300
 C        -9.7753929411       -4.3393355766       -0.2743366841
 C        -7.4792284527       -7.7945382826       -6.6905956676
 C        -5.3281773662       -6.9340407024       -5.8388977376
 C        -9.8286243924       -0.3969812436       -7.1639017798
 C        -9.3332681599       -0.8865290801       -9.6371535029
 C        -4.3637810452        0.1600429392       -4.9243016740
 C        -3.1270407258        1.5442494611       -6.5327339272
 C         2.4278881987       -0.2341231602       -3.8215193513
 C         3.9681602344       -0.1529952658       -5.7920619413
 C         0.8008594241       -6.0721140644       -5.4800577038
 C         1.2574606482       -6.7753075508       -8.0404048363
 C        -5.9216769827       -5.0597510316      -11.1748467993
 C        -4.8239130359       -7.4187453141      -11.1630658931
 C        -0.2890336172       -5.5489366383      -16.6573612668
 C         0.3108474770       -3.8081004468      -14.9060551494
 C        -5.2443987111       -0.1018890028      -18.4616144307
 C        -4.3266820559        0.3101700697      -20.7804037133
 C        -2.2586038990        6.6358927839      -19.7598898948
 C        -1.1381764872        5.5181290553      -21.8809901844
 C         2.3280904579        2.0382382857      -16.2279155869
 C         4.2168128014        2.5051119231      -17.8396908979
 H         4.4154633587       -1.1897730151      -18.7932033235
 H         5.0102091702       -0.1077275358      -17.5372745346
 H         4.8905993089        0.3021034422      -19.2311922666
 H         2.9060504876        4.1329805341      -19.4413323570
 H         1.9018050388        4.6049971119      -18.1475474267
 H         0.3672455188        3.5408861952      -20.5450272336
 H         1.4690248086        4.9733533878      -20.8196844132
 H        -4.0580859283        4.8672191768      -19.0561355118
 H        -2.7616788726        4.4846755050      -18.0335082445
 H        -4.9055835951        2.9328936484      -19.4322352932
 H        -4.6691780455        2.9204683906      -17.7288152513
 H        -4.0862861088       -2.6069549140      -18.7832345388
 H        -3.6066760974       -1.8772205857      -17.3047135198
 H        -1.4503977886       -2.8941627776      -19.0952328282
 H        -2.3898420963       -3.9915460299      -18.0942097906
 H        -1.5774725043       -5.6125748380      -13.7075902023
 H        -2.4311622627       -6.5695380037      -15.0472896506
 H        -4.3763816130       -6.5449294337      -13.7986437799
 H        -4.3713060893       -4.8497369222      -14.0089637972
 H        -2.4289211749       -7.1306177885       -9.8170385425
 H        -2.9832997746       -6.7434819706       -8.0158535577
 H        -1.9227873455       -4.3625530602       -8.7476602139
 H        -0.8267382175       -5.4317651672       -9.6387694924
 H         3.4505893418       -4.8545658506       -7.5508016714
 H         2.8368100547       -4.8633662458       -5.8828788562
 H         3.2212685763       -2.3038423268       -7.4345357677
 H         4.5616769146       -2.9597844325       -6.4608182566
 H         0.1626288504       -2.0272002299       -5.3220090050
 H        -0.0384421245       -1.6696123471       -7.0363192478
 H        -0.7404613961        0.7103196920       -6.3409009573
 H        -0.9512736870       -0.1358217604       -4.7642263649
 H        -4.4268293070        0.4708970915       -9.2965778689
 H        -5.2558183800        1.4613945812       -8.0352976193
 H        -6.5193972336       -0.7456962229       -9.8206733043
 H        -7.0792542268        0.8792076892       -9.5854640284
 H       -10.1368058860       -3.3439716463       -6.5835238448
 H        -8.5291345403       -2.9957774337       -5.7714200219
 H        -8.8275247467       -5.3177803963       -7.7768998093
 H        -9.2480650462       -5.4049310322       -6.0704859510
 H        -5.8960590694       -5.6688837168       -3.6033926157
 H        -6.3572570316       -6.9871361366       -2.8578700453
 H        -6.5574707674       -5.1464200425       -1.2329306314
 H        -7.9576512799       -6.0547173260       -1.4379959973
 H        -9.2653057103       -0.6971134354        0.1496925047
 H        -9.6142722064       -0.7673481058       -1.5023588273
 H        -7.0942123104       -0.1265947834       -2.0351226046
 H        -6.6703778718       -0.3337412511       -0.5265740910
 H        -8.3824030539        4.8900628449       -2.6614050596
 H        -9.1296286494        3.3325517254       -2.7927598058
 H        -8.0927032920        3.9870795064       -4.1579098480
 H        -6.3120611349        4.6331446260        0.2551460342
 H        -7.1076580071        3.2641115074        1.0115816461
 H        -7.9071153210        4.3885261378       -0.0830880742
 H        -5.3408858212        1.7010138382        0.1853048881
 H        -4.6269131709        2.8195798349       -0.7428813751
 H        -5.1869798803        1.3810974596       -1.5741767231
 H       -10.7868804787       -3.7015660591       -3.1016326407
 H       -10.3005046160       -2.0597633583       -2.9185164610
 H       -11.3444060592       -2.6590194075       -1.6782322254
 H       -10.6995318991       -3.9023736393        0.0904949873
 H        -9.0327093115       -4.3398451084        0.4453473527
 H       -10.0187603663       -5.3068147150       -0.5975827272
 H        -8.5008344423       -7.6596418776       -6.7362495545
 H        -7.3100768653       -8.8442304359       -6.3593974752
 H        -7.0688193818       -7.6661066565       -7.6796802522
 H        -5.0186018050       -6.9359151889       -6.8623575805
 H        -5.1236314659       -7.8702932563       -5.3668395293
 H        -4.6862353006       -6.1834492271       -5.2877363014
 H       -10.7962139284       -0.8732448188       -7.0210839994
 H       -10.0732356826        0.6212099737       -7.5641714662
 H        -9.2619154136       -0.4066652413       -6.1829688645
 H        -8.7783862920       -1.3232052926      -10.4278024221
 H        -9.4710967274        0.1746306485       -9.8629151154
 H       -10.3661750266       -1.3873871495       -9.7639906104
 H        -5.2961762820        0.6641075427       -5.1039736791
 H        -3.6412064599        0.5778708956       -4.2078029565
 H        -4.6322690312       -0.8481950363       -4.6699844592
 H        -2.3798838139        1.8184710799       -5.8380102827
 H        -4.0609410498        2.1037284906       -6.2671387513
 H        -2.7604450951        1.9417960375       -7.5316892719
 H         3.2373069729       -0.6256384652       -3.3012728712
 H         1.5117912672       -0.6153199516       -3.5000662178
 H         2.2919269682        0.8554306505       -3.7317054376
 H         4.1063338794       -0.2717617192       -6.8073409796
 H         4.7988723346       -0.5710935187       -5.1651294751
 H         3.9952969714        0.8977328770       -5.5932656310
 H         0.6848831294       -5.1940264817       -4.8214987143
 H         1.7708566461       -6.5079858324       -5.2680907454
 H         0.0174821776       -6.7369886590       -5.2150684951
 H         1.4647491876       -6.2123853820       -8.9741061250
 H         0.6185444176       -7.5214419671       -8.2831539000
 H         2.1693735007       -7.2868475192       -7.7037676927
 H        -6.7549133407       -5.7138331919      -11.3679845266
 H        -5.8277439509       -4.3592865354      -12.0762447275
 H        -6.1798567655       -4.4077741747      -10.2842657798
 H        -5.5817361278       -7.8549016634      -10.4582935921
 H        -3.9789840430       -8.0315203095      -10.9529538893
 H        -5.3090300630       -7.4717785570      -12.1530844873
 H        -0.4619637577       -6.3728722714      -16.0735215153
 H         0.6819356882       -5.3844708164      -16.9917441385
 H        -0.6912587886       -5.6579743116      -17.6713234285
 H         1.2607687288       -3.4483243488      -15.3366590966
 H         0.5517381069       -4.6055826451      -14.2227065222
 H         0.0314342452       -2.9161572074      -14.2762132039
 H        -5.7076673898       -1.0232024573      -18.8056276217
 H        -5.8651005935        0.7025740948      -18.7755103731
 H        -4.9577306600        0.0053568490      -17.4131810736
 H        -5.2919402437        0.9941729709      -20.8476560350
 H        -4.6235758593       -0.6388382677      -21.0917298265
 H        -3.5508956549        0.4191049331      -21.5135789084
 H        -2.1508265732        6.6030883592      -18.7148528170
 H        -3.2930842945        6.6937518460      -19.8797828620
 H        -1.6802800455        7.5540500424      -20.1413094020
 H        -0.9443430437        4.5133659676      -22.3043658193
 H        -0.3344538701        6.2345447764      -22.1230691994
 H        -1.9232601904        5.9329628392      -22.4736936887
 H         1.2737346926        1.6482300933      -16.1592085628
 H         2.3152910431        3.0481187606      -15.8260132381
 H         2.8439314635        1.3187622163      -15.5860963069
 H         4.6497031928        2.3988978902      -18.8404088381
 H         4.8295359118        2.0317319035      -17.0396699416
 H         4.4577301565        3.5864654045      -17.7447357524
 Na       -0.2024389834       -0.2235203098      -18.5038933362
 Na       -4.0024707131       -3.9884054403       -6.7863620142
