232

 C         4.3731536379       -0.3747143062      -18.3392230919
 C         3.0427285679        0.4126621445      -18.0537230513
 O         1.9515957901       -0.1412106841      -18.2377787934
 C         2.9878233380        1.9947547189      -17.7392488279
 C         1.9505667661        2.6358329489      -18.6205244507
 O         0.8820202297        2.1165316219      -18.8096868170
 C         2.0480245761        4.1198639088      -19.0163451489
 C         0.9073555625        4.4830347927      -20.0940591598
 C        -0.3331690098        5.2601500951      -19.5546408810
 O        -0.2023476164        5.7950386765      -18.5021251648
 C        -1.6872713055        5.3403430947      -20.3265259547
 C        -2.4843293904        4.0960528264      -19.9391606665
 O        -2.4501308428        3.1799022469      -20.7407970237
 C        -3.4568392529        4.0675104393      -18.7946088423
 C        -4.1853950750        2.6551497407      -18.5998289244
 C        -3.2437066150        1.4173943109      -18.7884003016
 O        -2.0457897544        1.4269219842      -18.5801301055
 C        -4.0255451986        0.0707862024      -19.2788728007
 C        -2.9927239503       -1.0090510894      -19.1511362847
 O        -2.1102182288       -0.9668047618      -20.0243890961
 C        -2.9421883802       -2.0709784929      -18.0262486387
 C        -1.7926299181       -3.1163669146      -18.2013503458
 C        -0.9441176997       -2.8819132157      -17.0216783019
 O        -0.2737585688       -1.8545886119      -16.9130622858
 C        -0.7794483537       -4.0506141860      -15.9381848388
 C        -2.1947614526       -4.5168544314      -15.4954649742
 O        -3.1953538314       -4.0278240915      -15.9536355085
 C        -2.2828439838       -5.5931650762      -14.4309413565
 C        -3.6130815742       -5.5189550409      -13.5305161383
 C        -3.2946988930       -5.6408472227      -12.0122953742
 O        -2.2168348150       -5.2916065208      -11.5340572750
 C        -4.4669565133       -6.1318234409      -10.9985340415
 C        -3.9724490353       -5.6378717673       -9.6264905364
 O        -4.5627442617       -4.8484022936       -8.9945078781
 C        -2.6304761043       -6.2735762888       -9.1177796132
 C        -1.5531774997       -5.1997799934       -8.7524930041
 C        -1.0733231966       -5.4369689657       -7.2804536086
 O        -1.8859953862       -5.4364854689       -6.4382765859
 C         0.4715546952       -5.8150122963       -7.0111980868
 C         1.3582902934       -4.4966159760       -7.3317558050
 O         0.8050803449       -3.5117093294       -7.8076645370
 C         2.8257785558       -4.4825369805       -6.8424265332
 C         3.3471803900       -3.0365542173       -6.6830271554
 C         2.8262323557       -2.3924438250       -5.4087949859
 O         2.2781402950       -2.9861755959       -4.5153424399
 C         2.7158966294       -0.8754570544       -5.3146810721
 C         1.5185880999       -0.2907114298       -6.0705692759
 O         1.6655666201        0.6646890068       -6.7894980765
 C         0.1664496556       -1.0426690936       -5.9096785983
 C        -1.0539124116       -0.0522144606       -5.8713144347
 C        -2.3889183289       -0.8388965495       -6.1485232102
 O        -2.5455393519       -2.0440211111       -6.1777423429
 C        -3.6644634670        0.0199446745       -6.3632327125
 C        -4.4614194789       -0.4385197804       -7.5115648178
 O        -4.5675743755       -1.6607212230       -7.7495489930
 C        -5.2070221317        0.4900505970       -8.5260033155
 C        -6.4197337812       -0.2886987824       -9.0956407939
 C        -7.4159809453       -0.5189632701       -7.9232949842
 O        -7.1100145311       -0.0795019112       -6.7943138057
 C        -8.8370482922       -1.1612704458       -8.1552286452
 C        -8.6168239809       -2.7702703681       -8.0336268243
 O        -8.0692360870       -3.3327253648       -8.9373876327
 C        -9.1439269602       -3.4538284776       -6.7995570337
 C        -8.7466201790       -4.9549887815       -6.8266205283
 C        -7.2495959288       -5.2262843040       -6.5221047671
 O        -6.3882078785       -4.4102983791       -6.5263981618
 C        -6.9965386207       -6.6517056106       -5.7860971723
 C        -7.6157475556       -6.5372928311       -4.3975068444
 O        -8.7969093878       -6.6889258480       -4.2327959226
 C        -6.6388282365       -6.3441208928       -3.1858236438
 C        -7.4424212810       -5.6237955957       -2.0211431893
 C        -8.1777724956       -4.2956565421       -2.3830485414
 O        -8.0640357283       -3.8294650843       -3.5234727421
 C        -9.0780320172       -3.5739184813       -1.4081254566
 C        -8.1756932796       -2.3641049454       -0.7386025244
 O        -7.1588473690       -2.5747650897       -0.0871724128
 C        -8.7323892116       -0.8854075779       -0.9180364806
 C        -7.5969457067        0.1327727670       -1.0958303190
 C        -7.8926312704        1.6476915728       -0.7356134239
 O        -8.9729116328        1.9616532287       -0.2399962197
 C        -6.7833197017        2.6856548825       -1.0885345978
 C        -6.8052917771        3.0943944850       -2.5599057766
 O        -5.7579527890        3.1978314164       -3.2000607832
 C        -8.1367064208        3.7004465841       -2.9645522279
 C        -6.8945447820        3.8740611718       -0.1497128057
 C        -5.3119081528        2.0449884868       -0.8643915447
 C       -10.3212301936       -3.0852410230       -2.1804488742
 C        -9.4689972797       -4.4583073338       -0.1719791449
 C        -7.6872951254       -7.7905925050       -6.6858722132
 C        -5.4184136166       -6.7999219257       -5.5783964000
 C        -9.9270206317       -0.7421395700       -7.1855477869
 C        -9.2993773195       -0.9552062190       -9.6114876928
 C        -4.5345525780       -0.1036513241       -5.0224010784
 C        -3.3449483155        1.5439921678       -6.5321561369
 C         2.5503849278       -0.4569469898       -3.8609180091
 C         3.9597889175       -0.0148350999       -5.8521823878
 C         0.6230871160       -6.1069074042       -5.4600751263
 C         0.9562823000       -6.9875832686       -7.8818090939
 C        -5.7394883847       -5.2749081746      -11.3405835565
 C        -4.8707060540       -7.6078357671      -11.1217312877
 C         0.0019704896       -5.0345262070      -16.8684150325
 C         0.0879353594       -3.7056987052      -14.6709989250
 C        -5.2776140670       -0.0339402219      -18.3222946653
 C        -4.4697375342        0.2251790070      -20.7664454939
 C        -2.2696867871        6.7359385828      -19.9001125242
 C        -1.4425916485        5.5151129036      -21.8980799297
 C         2.4858071194        2.0692325539      -16.2007046247
 C         4.3139910701        2.7584738101      -17.6787485851
 H         4.5785368613       -1.2715722206      -17.7551132915
 H         5.2241699036        0.2693335888      -18.1584094172
 H         4.3624107238       -0.8135712410      -19.3408178972
 H         2.9926195987        4.5913839779      -19.2656161732
 H         1.7453935485        4.7319592325      -18.1529601397
 H         0.7294201099        3.6903258563      -20.6833163470
 H         1.4030680230        5.2923979518      -20.6763613285
 H        -4.1269897440        4.9001124170      -19.0659422125
 H        -2.9739280804        4.3731967369      -17.8205433640
 H        -5.1090140511        2.4785473217      -19.1837267340
 H        -4.5201125845        2.5888076288      -17.5447174401
 H        -3.9203175529       -2.4392907591      -17.7837718989
 H        -2.7200242972       -1.3127331301      -17.1909926204
 H        -1.3618038263       -2.7435788475      -19.1487265662
 H        -2.3701877960       -4.0738901470      -18.2622692756
 H        -1.4026297018       -5.4572010659      -13.7537678190
 H        -2.4575172500       -6.5289281438      -14.9477404130
 H        -4.4106046526       -6.1138611939      -13.7987785913
 H        -3.9830567642       -4.5253998587      -13.5787903047
 H        -2.3600439499       -6.9757454836       -9.8194801638
 H        -2.8907567342       -6.6042291281       -8.1076114770
 H        -1.9623302355       -4.1559011172       -8.8809500281
 H        -0.7037994279       -5.4151585264       -9.4227066890
 H         3.3733282255       -5.0956347252       -7.5999702838
 H         2.9220557471       -4.9427767369       -5.9208421209
 H         3.1624296688       -2.4424421490       -7.6080627530
 H         4.4243122989       -3.1745886034       -6.6794497393
 H         0.2119243815       -1.5224095571       -4.9943531520
 H        -0.0643288701       -1.8192745114       -6.7462421066
 H        -0.9549458956        0.7644441261       -6.5660061260
 H        -1.2259521656        0.3427132398       -4.8228041246
 H        -4.5005333483        0.8471795801       -9.2685754086
 H        -5.6564475176        1.3790013463       -8.1075764150
 H        -6.0483872759       -1.2206440446       -9.5844226746
 H        -6.8716170973        0.2058255968       -9.9064346748
 H       -10.1982157176       -3.3630798308       -6.8070752770
 H        -8.8220322802       -2.9165471381       -5.9403355723
 H        -9.0055775266       -5.3623582486       -7.8314500178
 H        -9.2733965235       -5.5445426553       -6.0392579051
 H        -5.6070029768       -6.0202872538       -3.3314167227
 H        -6.4725980833       -7.3557344249       -2.7560388418
 H        -6.7428252721       -5.3655370419       -1.1950047821
 H        -8.0867151763       -6.4014737880       -1.5148193487
 H        -9.3100171983       -0.6173789367       -0.0522064770
 H        -9.4503488983       -0.7461411874       -1.7545908047
 H        -7.0903903548       -0.0439873214       -2.0568387772
 H        -6.7140844289       -0.0847326114       -0.4620171576
 H        -7.8263344362        4.7502654356       -2.7962295029
 H        -8.9551827734        3.5695185224       -2.2215007289
 H        -8.4655606998        3.5363473182       -4.0222043902
 H        -6.0794687138        4.5385471831       -0.3073799583
 H        -6.7163679763        3.5402475885        0.8711037447
 H        -7.8265932202        4.4364137526       -0.2510814807
 H        -5.1236885389        1.8324540099        0.1661206453
 H        -4.3874072252        2.5906542103       -1.1774966241
 H        -5.0933233093        1.1916040541       -1.4785430914
 H       -10.9749093735       -3.7737832260       -2.4732300192
 H        -9.9494243982       -2.7407191071       -3.1301551918
 H       -10.9475290058       -2.3157630271       -1.7220341362
 H       -10.2591812536       -3.9956305893        0.3979864147
 H        -8.5030956126       -4.6538485314        0.3998735245
 H        -9.9503848992       -5.4268128299       -0.5307894198
 H        -8.7134558264       -8.0985020789       -6.2959145308
 H        -7.1404110153       -8.6962788777       -6.7503867507
 H        -7.8573312330       -7.3755022578       -7.6969503555
 H        -4.9380260520       -7.0164910862       -6.5405620950
 H        -5.0001992373       -7.4133186862       -4.7608308810
 H        -5.0661063308       -5.8176443627       -5.4605575874
 H       -10.8945186620       -1.2930013760       -7.3153188798
 H       -10.1122425840        0.3061812939       -7.4859123221
 H        -9.6064558123       -0.7639242233       -6.1641777283
 H        -8.5975760305       -1.5047714792      -10.2976312153
 H        -9.1770049405        0.1428424659       -9.8769211722
 H       -10.2942198323       -1.1990890468       -9.9246516748
 H        -5.0589894709        0.8180424256       -4.8642319340
 H        -3.8685832690       -0.3592246836       -4.1580814224
 H        -5.4123490545       -0.7398273231       -5.1989130694
 H        -2.6784305840        1.9633127930       -5.7194296737
 H        -4.1151967214        2.1938339950       -6.8807245334
 H        -2.6539109492        1.5130111671       -7.3352129102
 H         3.5154760392       -0.8034252775       -3.3371589114
 H         1.6073266943       -0.9090826639       -3.4318704393
 H         2.2877196142        0.6187892458       -3.8755841341
 H         4.3407314587       -0.4392743021       -6.8196523258
 H         4.8029624691       -0.1160872132       -5.1332093516
 H         3.7677543001        1.0385306911       -5.9542661330
 H         0.7755413439       -5.1951147846       -4.8979510706
 H         1.4411155936       -6.8349838197       -5.2908284686
 H        -0.3081031804       -6.5438491019       -5.0675730955
 H         1.4190987714       -6.5931420595       -8.7830847729
 H         0.0651609741       -7.7675806259       -8.0653077622
 H         1.6494240983       -7.6402102582       -7.3469390847
 H        -6.5541093387       -5.9608660295      -11.6691322397
 H        -5.5964688193       -4.5924133631      -12.1009243169
 H        -6.1140326854       -4.7720638490      -10.4947215539
 H        -5.7990052967       -7.8646059932      -10.5938556287
 H        -4.1011682780       -8.2410311092      -10.5992860445
 H        -5.1870577538       -7.8274518155      -12.1497566142
 H         0.6193136157       -5.6974094712      -16.1602934762
 H         0.4742393944       -4.5117731907      -17.7161941537
 H        -0.5843906260       -5.7188744121      -17.4526599029
 H         0.9576196123       -3.1183409923      -14.9878265534
 H         0.5413586033       -4.5143236192      -14.0347483924
 H        -0.4304675848       -3.0365063673      -14.0004974243
 H        -5.7311705288       -0.9902297050      -18.6274718920
 H        -6.0173445820        0.7957100948      -18.6172209115
 H        -4.9018005332        0.0134768693      -17.2984036138
 H        -5.3049175735        0.7906281577      -20.7180333451
 H        -4.6337558256       -0.7083715759      -21.3310031732
 H        -3.6818528924        0.6539190612      -21.3587663852
 H        -2.7681698281        6.7528904953      -18.8505126277
 H        -3.2589174315        6.8197249468      -20.4840985352
 H        -1.5597042608        7.5158194363      -20.0342904374
 H        -0.6837275351        4.8419773613      -22.2893923612
 H        -1.2801952088        6.5764216345      -22.1522374154
 H        -2.3327595498        5.3575690647      -22.5502970388
 H         1.6514259800        1.4433671646      -15.9730387336
 H         2.2388443808        3.1011128795      -15.9226161815
 H         3.2288961549        1.6236212621      -15.5784859119
 H         4.7085526536        2.9354297029      -18.6693572728
 H         5.0165773554        2.2906077251      -16.9848844407
 H         4.2736646143        3.8127473422      -17.4361981587
 Na       -0.3391988184       -0.0642283489      -18.6852325990
 Na       -3.8023794062       -3.9263032558       -6.8033769353
