232

 C         4.5130954797        0.0553371949      -18.1737025578
 C         3.1399030422        0.5233132852      -18.1733854328
 O         2.1643238486       -0.2414053766      -18.3419680157
 C         2.8793392715        2.0261326893      -17.7747513056
 C         1.7576270845        2.7416719395      -18.6610173723
 O         0.6628678921        2.2637553849      -18.8286393038
 C         1.9127696665        4.1728727094      -19.2637894521
 C         0.7593258964        4.5847403721      -20.1991673351
 C        -0.5254103816        5.0807900689      -19.4329645578
 O        -0.5256437455        5.4686818593      -18.2970248673
 C        -1.7043405502        5.3274724523      -20.3495007484
 C        -2.7008897678        4.0860930838      -20.0127138897
 O        -2.9196879469        3.2756068015      -20.8862591913
 C        -3.2227846543        3.9960737407      -18.5363816650
 C        -4.1685380175        2.7860688424      -18.5820730254
 C        -3.4348928894        1.4819797218      -18.8618402285
 O        -2.3300755890        1.4696436790      -18.3323931881
 C        -4.1400623281        0.2610113853      -19.4005111430
 C        -3.0680121660       -0.9201586891      -19.3781185725
 O        -2.2700127289       -1.0580701134      -20.2521131596
 C        -3.0825202554       -1.9484632620      -18.2449949146
 C        -1.8560366458       -2.9590308694      -18.3036678751
 C        -0.9620035595       -2.6916286609      -17.0944617663
 O        -0.3863427981       -1.6224824603      -16.9505540122
 C        -0.7072149898       -3.9028082019      -15.9397934046
 C        -2.0940663367       -4.3630399830      -15.5474570060
 O        -3.1347170632       -3.9940762014      -16.0324527125
 C        -2.0614627360       -5.5892511440      -14.4975805810
 C        -3.3315974719       -5.6908121540      -13.5746585132
 C        -3.0653706943       -5.5980006255      -12.0594705292
 O        -1.9470870866       -5.3118566874      -11.6487284729
 C        -4.2682695698       -5.9566878480      -11.1546564761
 C        -3.9329216754       -5.5636898864       -9.6330906159
 O        -4.5451086784       -4.7924820674       -9.0114045120
 C        -2.6319134513       -6.2657103165       -8.9928498784
 C        -1.5945038654       -5.1433663236       -8.5396273498
 C        -1.3312428058       -5.3315348749       -7.1034061058
 O        -2.0790458039       -4.9915863079       -6.2595801183
 C         0.1625527970       -5.8972658579       -6.7507227588
 C         1.0526878783       -4.5852345566       -7.2348472643
 O         0.5247840246       -3.6132523937       -7.8004335448
 C         2.6256810096       -4.5525640787       -6.9078505786
 C         3.1320536617       -3.1469481134       -6.8952145771
 C         2.6751287954       -2.5102166020       -5.5714852081
 O         2.3103539173       -3.2324575212       -4.6629828823
 C         2.7919672266       -0.9886263955       -5.3572853742
 C         1.4479331459       -0.2066966797       -5.8447455069
 O         1.5980890810        0.8364235229       -6.4092130728
 C         0.0699764306       -0.8661235737       -5.5444763238
 C        -1.0422484133       -0.0441239597       -6.0990460575
 C        -2.4000861414       -0.8282971986       -6.0859166187
 O        -2.3444423026       -2.0034943297       -5.8264603824
 C        -3.8410114747       -0.0727715161       -6.3315604915
 C        -4.4089144072       -0.6447120906       -7.6793803699
 O        -4.3687847875       -1.8360197354       -7.9479317110
 C        -5.0474948216        0.2180165003       -8.6992187950
 C        -6.4541146343       -0.3501834659       -9.0901835643
 C        -7.5876164826       -0.4386126678       -7.9906213838
 O        -7.5090649422        0.0618713543       -6.8720570953
 C        -8.9198038116       -1.3107055743       -8.3489846266
 C        -8.5091617617       -2.7968457104       -8.2090316983
 O        -7.7628463069       -3.3282491021       -9.0021108503
 C        -8.9655109647       -3.5153879149       -6.9618628047
 C        -8.6048228087       -4.9436919603       -6.7355990381
 C        -7.1506905289       -5.1898056148       -6.3729392761
 O        -6.2671471731       -4.3657795128       -6.3834771645
 C        -6.8722223868       -6.6429841854       -5.8823393392
 C        -7.4549420776       -6.5651959765       -4.3195031158
 O        -8.6076259426       -6.8117606931       -4.1412240219
 C        -6.5527064306       -6.3434453473       -3.0036092031
 C        -7.4370256613       -5.7503022252       -1.8552487059
 C        -8.0406069189       -4.2808399403       -2.1939060710
 O        -7.6096077940       -3.7415247410       -3.1853519226
 C        -9.0149010005       -3.4864634719       -1.1870120911
 C        -8.1089994706       -2.2292944556       -0.9049742702
 O        -7.0214653175       -2.4630111168       -0.3483818807
 C        -8.4749333702       -0.7931659897       -1.1169733875
 C        -7.1583193898        0.1130146338       -0.9794563269
 C        -7.6222314593        1.5789192256       -0.7438951152
 O        -8.7429735942        1.9273772859       -0.4238670444
 C        -6.5479134937        2.6792554314       -1.0418424055
 C        -6.6092646044        3.0913684138       -2.5602135996
 O        -5.7044312967        2.8831515013       -3.3450753477
 C        -7.9640105164        3.5496100054       -3.0323929911
 C        -6.6811750791        3.8940412110       -0.1392737781
 C        -5.1385715640        2.1077853159       -0.7957041453
 C       -10.3903282808       -3.2791717511       -1.8804985123
 C        -9.1790849274       -4.2418438917        0.1134910297
 C        -7.7379936073       -7.7373334469       -6.5015350485
 C        -5.3296151117       -6.9559868106       -5.8539828005
 C        -9.9741964935       -0.7727730047       -7.3045895011
 C        -9.4815238662       -0.9648071127       -9.7054084134
 C        -4.8062963255       -0.5144473998       -5.2126320178
 C        -3.6899704755        1.4685315418       -6.4816624296
 C         2.8352338440       -0.7102297762       -3.7876720746
 C         4.0515091536       -0.4431470865       -6.0106292126
 C         0.1936339617       -6.2709386635       -5.2457404541
 C         0.5658464585       -7.1375988169       -7.6119514600
 C        -5.6370310384       -5.4246692506      -11.5063859174
 C        -4.3071416874       -7.5625724488      -11.3381665376
 C         0.0899953904       -5.1053805999      -16.3994056996
 C        -0.0050166938       -3.1789156723      -14.7381176074
 C        -5.2394764578       -0.2072013230      -18.4584768335
 C        -4.7924144937        0.5151456400      -20.8370869431
 C        -2.5965659165        6.5939471258      -19.9324872960
 C        -1.3727013857        5.3062698119      -21.8513078301
 C         2.4154835641        2.0412068796      -16.2988283899
 C         4.2108042292        2.8828227549      -17.9140987216
 H         5.1554128120        0.6221978708      -17.5577509849
 H         4.9632413456        0.2013364760      -19.1825690730
 H         4.5927952051       -0.9838676425      -17.8745020964
 H         2.8866813898        4.3398730477      -19.7349664359
 H         1.9725252738        4.8668481199      -18.4360399783
 H         0.6634378690        3.8035639192      -20.9196921316
 H         1.0308145926        5.5691490431      -20.6915656228
 H        -3.6634330024        4.9636549464      -18.3467418314
 H        -2.3019196397        3.9285337777      -17.9655421878
 H        -4.8788464970        3.0239048833      -19.3948585974
 H        -4.7805679438        2.6134866593      -17.7004700051
 H        -4.0199237058       -2.4331269214      -18.0876789578
 H        -2.9473793569       -1.3707843826      -17.3015525376
 H        -1.1973987955       -2.7699922763      -19.0996285898
 H        -2.4120270969       -3.9590399860      -18.2341841725
 H        -1.2172454199       -5.5204038526      -13.8526971941
 H        -2.1630227154       -6.4636813847      -15.1326107961
 H        -3.8529473990       -6.6946521381      -13.7156612580
 H        -4.0217537346       -4.8627805194      -13.9041898795
 H        -2.1632150534       -6.8347129591       -9.8081436845
 H        -2.9591230690       -6.9172847404       -8.1349308347
 H        -2.1271043576       -4.1973874502       -8.5406484009
 H        -0.7721807146       -5.2465225578       -9.2194548783
 H         3.1296759927       -5.2198406331       -7.6339362709
 H         2.7261394079       -4.9542257373       -5.9513226772
 H         2.9177780522       -2.6245361803       -7.8419335002
 H         4.2525191279       -3.1740443967       -6.9115486374
 H        -0.0947054464       -0.7968243241       -4.4752204014
 H         0.0121452145       -1.8697887139       -5.9197401997
 H        -0.8996596159        0.1881534874       -7.1498298244
 H        -1.0333099376        0.9014950395       -5.5246734206
 H        -4.3569613669        0.1573702919       -9.6509582060
 H        -5.1475411294        1.2476938551       -8.5465830398
 H        -6.2698358191       -1.3022485273       -9.6810824813
 H        -6.7743826034        0.3273684891       -9.9250791688
 H       -10.0534580905       -3.3906621096       -6.8761966088
 H        -8.6104717289       -2.8651417812       -6.0999643330
 H        -8.7189746712       -5.4692574303       -7.7139094677
 H        -9.1926012002       -5.3559261787       -5.9549161059
 H        -5.7743104574       -5.5987712234       -3.1378794270
 H        -6.0270158055       -7.2252301975       -2.6960280580
 H        -6.8748786605       -5.5530504313       -0.9708882118
 H        -8.2276949473       -6.4570598288       -1.5834540347
 H        -9.0979706920       -0.3276369989       -0.3479152394
 H        -8.9855504331       -0.5785431219       -2.0939586406
 H        -6.4453982564        0.0598353796       -1.8494773789
 H        -6.5354668746       -0.2146339707       -0.1729886983
 H        -7.9753170277        4.6264568763       -3.1170237528
 H        -8.7100049194        3.3518435649       -2.2643577867
 H        -8.2237610950        2.9755894037       -3.8839885481
 H        -6.0650502129        4.7223322864       -0.4811717826
 H        -6.3117733166        3.6710023866        0.8724621436
 H        -7.7150321712        4.2195041120        0.0108584634
 H        -5.0901566297        1.5160134803        0.1034676372
 H        -4.3163500602        2.8121776464       -0.7691577724
 H        -4.6991445056        1.5499421437       -1.5742256689
 H       -10.7757501481       -4.1405484904       -2.3632631463
 H       -10.4978390474       -2.5016868084       -2.7250641677
 H       -11.2458244755       -3.1545572306       -1.2058035778
 H        -9.9736751035       -3.8200938964        0.6816882823
 H        -8.2643869848       -4.0970543414        0.6569292403
 H        -9.3906207522       -5.2625427053       -0.0206629427
 H        -8.8451776164       -7.6036694280       -6.6488116401
 H        -7.6286064914       -8.5409929137       -5.8321446851
 H        -7.3682646920       -8.0732881203       -7.4313242946
 H        -4.7226033774       -6.6034049724       -6.7295972295
 H        -5.2091196184       -8.0346695337       -5.7683934812
 H        -4.8164570703       -6.5363090226       -4.9998565189
 H       -10.8512217202       -1.4723836601       -7.4026009699
 H       -10.1382977032        0.2792953658       -7.3978677496
 H        -9.6694835510       -0.8730500877       -6.2601824678
 H        -8.8092718421       -1.3961279890      -10.5110351998
 H        -9.7173172783        0.0803671365       -9.9342983024
 H       -10.4109820609       -1.4419888043       -9.7452222792
 H        -5.8307622181       -0.2505850945       -5.4232337791
 H        -4.4730571771        0.0559849409       -4.3917075611
 H        -4.9053419041       -1.5984714013       -5.0595310069
 H        -3.2154997253        1.8255500210       -5.5225664642
 H        -4.6371309386        1.9620053200       -6.5672080223
 H        -3.0272122477        1.8954000668       -7.2402029645
 H         3.7857592377       -1.0535427180       -3.4352749924
 H         2.0377611650       -1.1364158398       -3.1794198759
 H         2.7782926086        0.3067159954       -3.7604730138
 H         4.0151310156       -0.5705537177       -7.0952108381
 H         4.9348339996       -0.9332434420       -5.7548588191
 H         4.1337865700        0.5855751027       -5.7282229317
 H        -0.5351221986       -5.6241189884       -4.8142942225
 H         1.1436535346       -6.1439907656       -4.7980567933
 H        -0.0887107038       -7.3387612667       -5.0167546857
 H         0.3532402941       -6.9670113092       -8.6092473752
 H         0.1302433647       -8.0774205986       -7.1474665485
 H         1.5926736166       -7.2198958560       -7.5313981973
 H        -5.9350235552       -5.3878936161      -12.5965314794
 H        -5.7604651946       -4.4020059880      -11.1026082978
 H        -6.3488549454       -6.0897538087      -10.9801637567
 H        -4.7485975084       -8.0787012749      -10.5187036827
 H        -3.2359178387       -7.8718977513      -11.5438552618
 H        -4.9021575099       -7.9550720901      -12.1675529795
 H         0.0334183883       -5.8904365779      -15.6171845656
 H         1.1477054018       -4.8155794974      -16.5061403976
 H        -0.2496589684       -5.5546001040      -17.2697492730
 H         0.9478994547       -2.7063026151      -14.9929842695
 H         0.3820894830       -3.9118119267      -14.0283442871
 H        -0.6772874032       -2.5641337032      -14.2023235673
 H        -5.5336831829       -1.2031892816      -18.7251274164
 H        -5.9527579602        0.6085099700      -18.5980737141
 H        -4.7996730243       -0.2006343787      -17.4698784528
 H        -5.2629578888        1.4081517058      -20.9630452130
 H        -5.4676005002       -0.3940551535      -21.0286649804
 H        -3.9733977938        0.3300702671      -21.5786629590
 H        -2.6091091896        6.8592924740      -18.8452267845
 H        -3.6442644963        6.4304964218      -20.2629484387
 H        -2.1368870597        7.3649226929      -20.4111097291
 H        -1.1819244573        4.2980153778      -22.1185148006
 H        -0.5352479670        5.9069552160      -22.1463158358
 H        -2.2261069805        5.7290680595      -22.4407580517
 H         1.4422582638        1.6608217022      -16.0733752301
 H         2.5407650888        3.0867127961      -15.9590039762
 H         3.1249369685        1.4071120416      -15.6689447835
 H         4.7319020319        2.8889351904      -18.9374729123
 H         4.8718772872        2.5874393970      -17.0634570863
 H         4.0057069109        3.9189390607      -17.6912307937
 Na       -0.2217383837        0.0812747596      -18.4988391776
 Na       -4.1332364133       -3.7591730787       -6.8268961702
