232

 C         4.5557136064        0.0649369670      -18.2172819957
 C         3.1181229088        0.5635959460      -18.2518634407
 O         2.2293779031       -0.2517454908      -18.4535171461
 C         2.7945582958        2.2019828765      -17.8217322731
 C         1.5721111536        2.7669037207      -18.6530248571
 O         0.5515319485        2.1235489635      -18.7832448017
 C         1.8713884262        4.1886106661      -19.2179170346
 C         0.7758407552        4.6261453557      -20.1496536775
 C        -0.4198267204        5.2154182030      -19.4702293596
 O        -0.5394452367        5.1930738954      -18.2649820666
 C        -1.7082891100        5.2804911336      -20.3928310265
 C        -2.7134559566        4.0632627002      -20.0145594615
 O        -3.0966582004        3.2795178392      -20.8496307861
 C        -3.2637163173        3.9418038762      -18.6102826274
 C        -4.2531350681        2.7773017321      -18.4830244524
 C        -3.4459823635        1.4523910120      -18.7013963297
 O        -2.2908616478        1.2837363951      -18.2839696085
 C        -4.2082131855        0.1752719271      -19.4101807275
 C        -3.0976911848       -0.9648375640      -19.4707081487
 O        -2.1821986394       -0.8950192586      -20.3227266052
 C        -3.0672551619       -2.0560851697      -18.3137674612
 C        -1.7706178645       -2.9550124508      -18.3397765166
 C        -0.8770573909       -2.7828127173      -17.1090928318
 O        -0.4199268170       -1.6373065004      -16.9763629531
 C        -0.7130042349       -3.7428774448      -15.8888661432
 C        -2.1233052391       -4.3248485516      -15.4772026697
 O        -3.1231833962       -3.9334087748      -16.0618979561
 C        -2.0728179670       -5.5650279461      -14.5600882306
 C        -3.2654730139       -5.7690876078      -13.6429754715
 C        -2.9558627450       -5.5583749222      -12.1195280246
 O        -1.8683730859       -5.2839090342      -11.6597799791
 C        -4.1823188496       -6.0492321199      -11.1207758363
 C        -3.8685397043       -5.6452625834       -9.6914086178
 O        -4.5455675785       -4.7649378659       -9.1593613302
 C        -2.6569387630       -6.1686740877       -9.0240351472
 C        -1.7068815441       -5.0601325958       -8.5387046808
 C        -1.3811577659       -5.2680206878       -7.0917076948
 O        -2.0713181081       -4.9024385486       -6.1595915526
 C         0.0850654063       -5.8291763051       -6.6912776143
 C         0.9230021942       -4.6133961271       -7.1107492172
 O         0.4447806161       -3.6914763263       -7.7305245949
 C         2.4138879367       -4.6631921891       -6.9261267752
 C         2.9494136438       -3.1876869753       -6.8479751368
 C         2.6149116069       -2.5581856926       -5.4988836015
 O         2.1802903016       -3.2662688207       -4.6148710967
 C         2.7947192652       -1.0481319112       -5.3405801825
 C         1.5396877156       -0.2840620275       -5.7856957884
 O         1.7247569779        0.7961100952       -6.2916126564
 C         0.0826604753       -0.8139956799       -5.5061805339
 C        -1.1698257599       -0.0611838520       -6.1472212539
 C        -2.4570512236       -0.8653800201       -6.1346224896
 O        -2.5099937184       -2.0692103053       -5.8393951746
 C        -3.8365919614       -0.1676872315       -6.3139191473
 C        -4.4018110279       -0.7152669211       -7.7135479162
 O        -4.1996144969       -1.9473489415       -8.0198680822
 C        -5.1408345702        0.2388295554       -8.7378038846
 C        -6.5811439617       -0.3017644820       -9.1844906391
 C        -7.6083180356       -0.3477943227       -8.1060425959
 O        -7.4110948046        0.1158489380       -6.9766159659
 C        -8.9404309476       -1.2302466945       -8.3664705121
 C        -8.4433587016       -2.7150638067       -8.1402243988
 O        -7.8042971812       -3.2535837750       -9.0040670072
 C        -8.9674119877       -3.4256102502       -6.8577256022
 C        -8.5616963930       -4.9397054744       -6.8029094866
 C        -7.0955088995       -5.2671526663       -6.3963470336
 O        -6.2864421380       -4.3815208164       -6.2703860417
 C        -6.8104105839       -6.7474269721       -5.7478518009
 C        -7.3749899819       -6.6446306711       -4.2779549950
 O        -8.5661946173       -6.8254881239       -4.1939580075
 C        -6.5494417485       -6.2116953823       -3.0434906971
 C        -7.3148478490       -5.7101738379       -1.8190477905
 C        -7.9840770634       -4.2657783129       -2.0597051290
 O        -7.6576955941       -3.6749211467       -3.0955143598
 C        -8.9302255082       -3.5537390892       -1.0755037730
 C        -7.9512779783       -2.2321207327       -0.8742287266
 O        -6.9086564318       -2.5367803929       -0.3667726609
 C        -8.3842834424       -0.8039002697       -1.2364339652
 C        -7.1690769183        0.1878832604       -1.0289978945
 C        -7.5259994351        1.6137881468       -0.7805846031
 O        -8.7117199726        1.8727589361       -0.5048711392
 C        -6.4243244257        2.7007760383       -0.9901444623
 C        -6.6069274070        3.0376954153       -2.5538055732
 O        -5.6877497889        2.6747620646       -3.2797179506
 C        -7.9662242843        3.5423281818       -3.1039989015
 C        -6.6691834707        3.9126499659       -0.0896689310
 C        -4.9230571351        2.1878647678       -0.8537170708
 C       -10.2325726781       -3.2690758335       -1.8734921332
 C        -9.1760445959       -4.1500225872        0.2905626971
 C        -7.5994549573       -7.7830873250       -6.6119058128
 C        -5.3200911521       -6.9576524703       -5.7797081802
 C       -10.0450443419       -0.8531128611       -7.3830871250
 C        -9.4964556532       -1.0039235253       -9.8366145468
 C        -4.8034744920       -0.6451634943       -5.2029324777
 C        -3.7640864433        1.3722260287       -6.3843199823
 C         2.9717024397       -0.8617092945       -3.8221568201
 C         3.9416206952       -0.4674378803       -6.1567796475
 C         0.2094516500       -6.1018416639       -5.1933977052
 C         0.5177642568       -7.0852969141       -7.4950942599
 C        -5.6066898430       -5.4508418991      -11.4234721715
 C        -4.2436844667       -7.5822240853      -11.4193510391
 C         0.1564919690       -4.8975404310      -16.3880979012
 C         0.0766254341       -3.0551334432      -14.7112367728
 C        -5.5953956064        0.0341048017      -18.4724876744
 C        -4.6821606323        0.4916087593      -20.8779461548
 C        -2.5091759812        6.5877258901      -20.0029852675
 C        -1.3936275290        5.3716682501      -21.8816635723
 C         2.3387439468        2.1794727822      -16.4239637078
 C         4.0841743113        3.0707894700      -17.9718225142
 H         5.2883285940        0.7454493998      -17.7888280564
 H         4.9149032341       -0.1112655380      -19.1932918772
 H         4.5583488844       -0.8886907754      -17.7026260237
 H         2.8354333841        4.2519562450      -19.6673194910
 H         1.9482875020        4.8807364620      -18.3982018854
 H         0.4486535781        3.7693715812      -20.6236511318
 H         1.1339719542        5.3545262212      -20.8951646392
 H        -3.6781930217        4.9327090765      -18.4299306898
 H        -2.3412674974        3.8501330659      -17.9807289893
 H        -5.1578255394        2.8895148754      -19.1148929800
 H        -4.6264649235        2.7551305836      -17.4321170805
 H        -3.9922890758       -2.6122701006      -18.3051501249
 H        -3.0555427910       -1.5464512178      -17.2857771108
 H        -1.1095973940       -2.6289414916      -19.1525910825
 H        -2.1386504781       -3.9666689067      -18.3474790132
 H        -1.1878361879       -5.4748570278      -13.8938096894
 H        -2.0733658186       -6.3552653039      -15.2977390894
 H        -3.6126330883       -6.7422426617      -13.6638048672
 H        -4.0117381123       -5.0840726688      -13.9769795415
 H        -2.1773842956       -6.8907513837       -9.6306750791
 H        -3.1312512775       -6.6843888660       -8.1350685948
 H        -2.3163843134       -4.1268862893       -8.5090854946
 H        -0.8839142987       -5.0856912202       -9.2605026230
 H         2.7449369610       -5.1951745468       -7.7973422380
 H         2.6205050053       -5.2420777557       -6.0733648708
 H         2.5209763149       -2.6094750745       -7.7129479825
 H         4.0328216128       -3.1163494832       -7.0722456889
 H        -0.0528210629       -0.7516495766       -4.5030365381
 H         0.0102458602       -1.8804501643       -5.8964751948
 H        -1.0713032774        0.0541571842       -7.2241731802
 H        -1.2698951416        0.9666892000       -5.6988059528
 H        -4.5684023106        0.3197084141       -9.6421797539
 H        -5.2601051122        1.3102154758       -8.4139690556
 H        -6.3278173878       -1.3410762044       -9.5971781989
 H        -6.8749825126        0.1864240113      -10.1109265114
 H       -10.0214523530       -3.3115756947       -6.8321072744
 H        -8.6654551373       -2.8506542208       -6.0139027899
 H        -8.7632876033       -5.3539661193       -7.7971336960
 H        -9.0945911572       -5.4315948007       -5.9678422540
 H        -5.6920391178       -5.6076301227       -3.1418408525
 H        -6.2179963967       -7.1961840665       -2.7477732908
 H        -6.6208966491       -5.5638638026       -0.9745190562
 H        -8.0758668753       -6.4475603851       -1.5187536285
 H        -9.2737770372       -0.3680412037       -0.7639264325
 H        -8.5494712098       -0.8156833792       -2.3394834928
 H        -6.4597969004        0.0839896202       -1.8549414862
 H        -6.5915108802       -0.1776084491       -0.1476750473
 H        -7.7567797375        4.5926178031       -3.1160200976
 H        -8.7960454609        3.4438471296       -2.4372749807
 H        -8.2524699458        3.0437211147       -4.0454501677
 H        -5.9962568971        4.6181002163       -0.3925661035
 H        -6.4654335368        3.6729038843        0.9333920989
 H        -7.6685427135        4.2705422941       -0.0303617401
 H        -4.6763340875        1.7450817541        0.0598786547
 H        -4.1515767019        2.8930210223       -1.1196108699
 H        -4.6457522124        1.4177310801       -1.5363200631
 H       -10.5838679137       -3.9877928455       -2.5237274204
 H       -10.2703976431       -2.3744113040       -2.4452141580
 H       -11.1290225411       -3.2435779996       -1.1955104889
 H       -10.0317726386       -3.6969073849        0.6738494615
 H        -8.3850220619       -3.9054944543        0.9908649790
 H        -9.3264302874       -5.2446886604        0.2683529110
 H        -8.5777002895       -7.4777792413       -6.9545824652
 H        -7.7648250280       -8.6096550668       -5.9661667444
 H        -7.0946670663       -8.2123574941       -7.4630911532
 H        -4.8512606004       -6.7990994739       -6.7590714265
 H        -5.1567596409       -8.0332260163       -5.5417631378
 H        -4.7721258146       -6.4126347780       -5.0687298844
 H       -10.7380427841       -1.6989456880       -7.4896307840
 H       -10.4374743992        0.1843155124       -7.5188735651
 H        -9.7698096828       -0.8173078286       -6.3268001707
 H        -8.7461690209       -1.4140369979      -10.5010113497
 H        -9.8241744894        0.0349541246      -10.2016782671
 H       -10.4215318798       -1.6214236229       -9.9457778971
 H        -5.7378960436       -0.7502982279       -5.6285211976
 H        -4.9889639248        0.2253719347       -4.5324289976
 H        -4.6425711098       -1.5444553940       -4.6923029302
 H        -3.2980480156        1.7130466833       -5.4008272318
 H        -4.7741615552        1.8491384432       -6.3861344026
 H        -3.1701330292        1.8546018613       -7.1371042678
 H         3.9822618884       -1.2503117118       -3.6012755815
 H         2.2526324175       -1.2902211928       -3.1504224998
 H         3.0409130275        0.2986949833       -3.8062680848
 H         3.7707857212       -0.4306167577       -7.1828859510
 H         4.8870605829       -1.1034778653       -6.0997139051
 H         4.1554171371        0.4622084221       -5.7791999530
 H        -0.4816323597       -5.4927854535       -4.6423661680
 H         1.2433358571       -5.9433485681       -4.8365295047
 H         0.0392507836       -7.1294177720       -4.9739575075
 H         0.3434090286       -6.8640892333       -8.5111518043
 H        -0.0438984479       -7.9546478885       -7.1213363813
 H         1.6209225361       -7.2110412818       -7.3341764333
 H        -5.6333597999       -5.0252947229      -12.4933478803
 H        -5.7884829907       -4.6040079260      -10.7971061946
 H        -6.4384283070       -6.1698005957      -11.3249348887
 H        -4.7512389369       -8.1462021560      -10.5905654094
 H        -3.2803424357       -8.0172762945      -11.7886800265
 H        -4.9535677814       -7.8257022281      -12.2733194001
 H        -0.0529247574       -5.7343128609      -15.6651164069
 H         1.2341834611       -4.7293960695      -16.2333629307
 H        -0.1216692176       -5.3203598696      -17.3511096460
 H         1.0822036957       -2.8311805543      -15.0569433399
 H         0.3627828981       -3.7544209725      -13.8799535175
 H        -0.4237838519       -2.1916048495      -14.2621939631
 H        -6.0094237201       -0.9622245625      -18.6817451361
 H        -6.1913793635        1.0030928504      -18.7409486093
 H        -5.2498686249        0.0524904007      -17.4544067785
 H        -5.2380041137        1.4503882825      -20.7847663410
 H        -5.3751716772       -0.2271109843      -21.1314819264
 H        -3.9398913579        0.6100350811      -21.6132009195
 H        -2.2318047201        6.9425966005      -18.9505902118
 H        -3.6250127914        6.3993581208      -20.0146629928
 H        -2.1648621478        7.3976472055      -20.7132433827
 H        -1.1823704127        4.4275632136      -22.4097488382
 H        -0.4069406272        5.9430528080      -21.9180959215
 H        -2.1089725612        6.0195604452      -22.4046469891
 H         1.2458297045        1.9084295111      -16.3501290507
 H         2.4929289661        3.2032427309      -15.9745199649
 H         2.8588437143        1.4925086568      -15.8117267317
 H         4.7508490956        2.9218895116      -18.8468828971
 H         4.6403975988        2.9487998891      -17.0011473653
 H         3.8041847498        4.1905830242      -17.9150048467
 Na       -0.3029763445        0.1098498302      -18.4109818470
 Na       -4.1138198670       -3.8229862424       -6.6963226214
