232

 C         4.3062631997        0.1525662782      -18.4614789634
 C         2.9313516881        0.8199494408      -18.4084857517
 O         1.9949555588        0.0639970285      -18.6907484887
 C         2.6585746028        2.3218629746      -17.8161568292
 C         1.5845117419        2.9688536161      -18.6951481566
 O         0.6201783330        2.3240815928      -19.0148586358
 C         1.8851418813        4.2559951410      -19.5201004284
 C         0.6392368063        4.5952056212      -20.3760141439
 C        -0.5913918634        4.9224604589      -19.6270244080
 O        -0.6622524512        4.7977239615      -18.4540726101
 C        -1.9517795375        5.3187542208      -20.4149399713
 C        -2.8695042767        4.0838455005      -20.0823286249
 O        -3.3452939876        3.3514037614      -20.9598462404
 C        -3.4117142630        3.9333804382      -18.6362210400
 C        -4.3746650913        2.6904924906      -18.3339435796
 C        -3.5468213608        1.3633643072      -18.4567386845
 O        -2.4348163089        1.3497117315      -17.8938422378
 C        -4.0808694143        0.1745613019      -19.3366495544
 C        -3.0612875031       -0.9435387783      -19.2948004085
 O        -1.9787752847       -0.7523164133      -19.8591830762
 C        -3.2281179783       -2.2668372872      -18.5197542288
 C        -1.7662008809       -2.8155048071      -18.3645924137
 C        -1.0873027377       -2.4274075444      -17.0558669767
 O        -0.3886214923       -1.4013987401      -16.9880536698
 C        -0.7075522114       -3.5613147607      -16.0138124019
 C        -1.9769152802       -4.2526207938      -15.5035383231
 O        -3.0290790227       -3.6797545353      -15.7051421959
 C        -1.8783863894       -5.5064146502      -14.6231890152
 C        -3.1915159732       -5.7030379396      -13.8404124531
 C        -2.9781786165       -5.6377686606      -12.2578401587
 O        -1.9926333026       -5.1012006187      -11.7821323169
 C        -4.1875097933       -6.1185719426      -11.2946230168
 C        -3.8864801710       -5.5625881060       -9.7909579948
 O        -4.5983248795       -4.7792073343       -9.2198286256
 C        -2.7143231848       -6.2305746479       -9.0429811853
 C        -1.8538771078       -5.1560323916       -8.3120867068
 C        -1.5666124217       -5.3550496036       -6.7805766499
 O        -2.3818052150       -5.3577560684       -5.9143419792
 C        -0.0955012762       -5.6673741709       -6.4791280533
 C         0.8194120414       -4.4703370385       -7.0101197214
 O         0.3354174899       -3.4280640276       -7.4332448417
 C         2.3873966707       -4.6961058700       -7.0591361489
 C         3.1561534186       -3.4015992943       -6.7158000330
 C         2.4620015119       -2.7313920407       -5.5056853085
 O         1.7283343563       -3.2751616696       -4.7113125486
 C         2.6597304236       -1.1412261680       -5.3141811705
 C         1.3358796669       -0.4242066050       -5.6277388169
 O         1.3437108274        0.7153903209       -6.0305802249
 C        -0.1011565238       -1.0844136320       -5.4608729585
 C        -1.2381714127       -0.2767016762       -6.0865130496
 C        -2.5284998248       -1.0624991866       -6.1109741647
 O        -2.4383322048       -2.3182495888       -5.9585443051
 C        -3.8598459635       -0.4226495801       -6.3889423745
 C        -4.2986958444       -0.7009313891       -7.7967645516
 O        -4.3184102330       -1.9038814217       -8.1915824118
 C        -5.1323403960        0.1967544927       -8.6679673147
 C        -6.4507090734       -0.5377767485       -9.1328635499
 C        -7.6141665452       -0.3939006350       -8.1712237588
 O        -7.6461045863        0.3214225574       -7.1520960128
 C        -8.8694827806       -1.1790516602       -8.4681723863
 C        -8.4174128820       -2.7089587232       -8.1517830882
 O        -7.8601112857       -3.3932246395       -8.9729651982
 C        -8.7090560063       -3.3916785783       -6.7475128543
 C        -8.3764571439       -4.8891506381       -6.8071121678
 C        -6.9413048605       -5.1902752050       -6.2547735332
 O        -6.0978468121       -4.3144335045       -6.0609107145
 C        -6.6895483215       -6.5550046154       -5.7300141784
 C        -7.4122816448       -6.5243086541       -4.2288343490
 O        -8.5261332580       -6.9410501030       -4.1478676300
 C        -6.4934640655       -6.0796533984       -3.0726486752
 C        -7.3025899240       -5.6791689894       -1.8557406202
 C        -7.9076694571       -4.2324926800       -2.2018790713
 O        -7.7813636486       -3.7828945502       -3.3380623542
 C        -8.5869548956       -3.4322892654       -1.0259614199
 C        -7.5593078214       -2.2924657354       -0.7174896428
 O        -6.6433377037       -2.4286745432        0.0692828308
 C        -7.8678954972       -0.9140106044       -1.2806600875
 C        -6.6802733196        0.1142277524       -1.1199824552
 C        -7.3019643625        1.4951276696       -0.9347095958
 O        -8.4943456205        1.6833635795       -0.6312818617
 C        -6.2570129215        2.7173261267       -1.1209000471
 C        -6.4297187979        2.8513249211       -2.6775721268
 O        -5.7660620996        2.2338090187       -3.5015178165
 C        -7.5259634149        3.7607287273       -3.0815977511
 C        -6.7634559719        3.9918295208       -0.3372052983
 C        -4.8862148246        2.2784378988       -0.6436773191
 C        -9.9407290299       -2.9171383650       -1.4984396072
 C        -8.6841064458       -4.4015152910        0.2372822185
 C        -7.3348226661       -7.7552764114       -6.4817337641
 C        -5.1674448501       -6.7974513279       -5.3673644755
 C        -9.9730221419       -0.6619181896       -7.5709946150
 C        -9.4006000130       -1.2024378272       -9.9958369786
 C        -4.9615161858       -1.0608826604       -5.4532085679
 C        -3.8440256950        1.0969235442       -6.1633042923
 C         3.0940633893       -0.8414750806       -3.8999767437
 C         3.8303717310       -0.6223861936       -6.2653921717
 C         0.1274933252       -5.7766861867       -4.9569089752
 C         0.1943555772       -7.1058810071       -7.1027040679
 C        -5.5638107514       -5.5897236674      -11.7216395622
 C        -4.2917689577       -7.6656934868      -11.1746429181
 C         0.3765785215       -4.5191453037      -16.6871494195
 C        -0.1130920211       -2.9016686712      -14.6298730481
 C        -5.4757422510       -0.4271603484      -18.8189605635
 C        -4.2828589140        0.7287476176      -20.7622553864
 C        -2.3595191851        6.6933371614      -19.7689027898
 C        -1.8672091248        5.3831146918      -22.0426119954
 C         2.1157794502        2.1126219937      -16.3857290469
 C         3.9158256758        3.1935675999      -17.6268767574
 H         5.0996310116        0.9117974627      -18.5065732909
 H         4.4367342989       -0.6070400745      -19.2613734271
 H         4.3922429391       -0.4742450814      -17.5474691276
 H         2.7765681807        4.2302699431      -20.1913959678
 H         2.0371247278        5.2249794762      -18.9884657307
 H         0.2716967148        3.8222077959      -21.0224106639
 H         0.9764633726        5.5374606406      -20.9804603005
 H        -3.9700627329        4.8445912431      -18.5306357203
 H        -2.5618874793        4.0461197312      -17.9940622889
 H        -5.1743257757        2.6794313861      -19.0758552620
 H        -4.7722253981        2.9889287128      -17.3859870899
 H        -3.9531380126       -2.9621479080      -18.8618528404
 H        -3.5293881675       -1.9265024044      -17.5080986439
 H        -1.1953237262       -2.4605928857      -19.1962284646
 H        -1.7740903981       -3.9427196914      -18.1496801547
 H        -1.0511940561       -5.4191315740      -13.8981264060
 H        -1.7521581632       -6.3229714405      -15.3542531497
 H        -3.5803683513       -6.7393470723      -14.1409421181
 H        -3.9207314218       -4.8151852254      -14.0875823852
 H        -2.0937776654       -6.8240009380       -9.7245128962
 H        -3.0573450371       -7.0374654700       -8.3130940959
 H        -2.3962790960       -4.2227933118       -8.4281764686
 H        -0.9720183226       -5.1301454967       -8.9214382886
 H         2.6377729389       -5.0694847169       -8.1240776737
 H         2.6044343595       -5.4345955392       -6.3564442229
 H         3.1643978240       -2.6997884549       -7.5786282630
 H         4.2135787742       -3.6785006121       -6.6074145846
 H        -0.2034717502       -1.1357708628       -4.4039636348
 H        -0.1830080396       -2.0667350369       -5.9758978059
 H        -0.9145802308       -0.1408172410       -7.1148475973
 H        -1.3463670263        0.7219577876       -5.6306993874
 H        -4.5028351447        0.5775973010       -9.5443876534
 H        -5.5215263283        1.0852265150       -8.2065520556
 H        -6.1093482377       -1.5679467657       -9.3656798858
 H        -6.7143369322       -0.1118262985      -10.0962620177
 H        -9.7157621611       -3.1157719051       -6.3282624249
 H        -8.0027120924       -2.8711810471       -5.9869360418
 H        -8.2717084324       -5.2045299018       -7.8730775273
 H        -9.0881024096       -5.4038728253       -6.2228874441
 H        -5.6859382239       -5.3540630211       -3.2524596759
 H        -6.0615924934       -7.0081604875       -2.6428525414
 H        -6.6555841003       -5.7000290273       -1.0115312553
 H        -8.0796294829       -6.4581277346       -1.7621386195
 H        -8.7246465853       -0.6206133408       -0.6924467342
 H        -8.1344016006       -0.9180800349       -2.3595660495
 H        -6.0035296428        0.0593620153       -2.0090240876
 H        -6.1892902202       -0.3022502011       -0.2775402488
 H        -7.1924005124        4.7530009248       -2.7517467613
 H        -8.4481308242        3.4626816002       -2.5778053171
 H        -7.7311673322        3.5857089750       -4.1383240946
 H        -5.9432182745        4.6812963493       -0.5396155479
 H        -6.8079198737        3.7001854602        0.7714938884
 H        -7.8224529169        4.3926730887       -0.4311029098
 H        -4.5772410350        2.2265486996        0.3973686692
 H        -4.0523518997        2.8847412763       -1.1559779356
 H        -4.6642335383        1.2492625009       -0.8474271870
 H       -10.7132391707       -3.5822740993       -1.2299738279
 H       -10.0200365144       -2.8621184183       -2.6281205150
 H       -10.3423382227       -1.8391485201       -1.2360545447
 H        -8.8822100290       -3.8426685011        1.1119225885
 H        -7.7445892644       -4.9612058428        0.4973370167
 H        -9.4431728143       -5.1772180265        0.0386899209
 H        -8.4519969164       -7.8161323783       -6.2481007282
 H        -6.8533744759       -8.6967087429       -6.4501162314
 H        -7.3926215875       -7.5352309809       -7.5532001352
 H        -4.5683546229       -6.9852678773       -6.2964229127
 H        -4.8828000198       -7.6534932461       -4.7460547795
 H        -4.8018732105       -5.9144425307       -4.9028530684
 H       -10.9623075258       -1.1374295199       -7.7175545069
 H       -10.0736001311        0.3769546410       -7.8545559125
 H        -9.7091902312       -0.6138592335       -6.5513956256
 H        -8.7625362612       -1.7324960375      -10.6890789807
 H        -9.4567267398       -0.1474858905      -10.2788938472
 H       -10.3618222655       -1.5923842417      -10.0448698976
 H        -5.7996327687       -1.4802599596       -5.9619931540
 H        -5.5349718289       -0.2551769801       -4.8818196425
 H        -4.5438149042       -1.8194646114       -4.7377387785
 H        -3.4691127130        1.5040277825       -5.1879881923
 H        -4.7668487149        1.5940844653       -6.2554825620
 H        -3.2439549553        1.4542174233       -6.9551860026
 H         3.9885710307       -1.3823347470       -3.7141248666
 H         2.3958954027       -1.1706889601       -3.2321433860
 H         3.3886737314        0.2010369173       -3.8786550983
 H         3.6316543668       -0.7097591963       -7.3619242606
 H         4.8335709225       -1.1151086066       -6.0852303520
 H         3.9550824624        0.4141075990       -6.1371543096
 H         0.1422216773       -4.8132404312       -4.4756096577
 H         1.0212095398       -6.3403333040       -4.6739348700
 H        -0.7312794369       -6.3594768703       -4.5253905721
 H         0.2739908394       -7.0936890131       -8.1275322718
 H        -0.7852066068       -7.6450822997       -6.8745714732
 H         1.0513620150       -7.5129894405       -6.6062210755
 H        -5.6378769726       -5.3003515481      -12.8213140102
 H        -5.8711364283       -4.7791772388      -11.1359893896
 H        -6.2741483963       -6.3600438695      -11.5119417539
 H        -5.1736503728       -7.9575411503      -10.6865479559
 H        -3.4437657022       -8.1206970089      -10.7024877744
 H        -4.1390231763       -8.1096491484      -12.1060198437
 H         1.1759175234       -4.9437142265      -16.0635948234
 H         1.0183898729       -3.8309120458      -17.1993507506
 H        -0.0465282926       -5.2308282032      -17.2843296513
 H         0.7403254833       -2.2406348000      -14.7506571704
 H         0.0862394895       -3.5697230356      -13.7915491053
 H        -0.8941798803       -2.2659066263      -14.3265260300
 H        -5.8160593988       -1.1224043890      -19.5064939987
 H        -5.9922916069        0.5336637348      -18.7290305946
 H        -5.3513756725       -0.8552876401      -17.9114503315
 H        -5.0369784924        1.5373315334      -20.8390692347
 H        -4.7558426700       -0.1497277127      -21.2402449256
 H        -3.3522042415        1.2057051555      -21.1561505199
 H        -2.5917302974        6.4580415478      -18.7627676022
 H        -3.0874725637        7.2739109508      -20.2762274899
 H        -1.4982617839        7.2575794937      -19.6884107645
 H        -1.4186046437        4.5583339591      -22.5005181812
 H        -1.2851380889        6.2190702690      -22.3723186788
 H        -2.9075243248        5.3779397704      -22.3583423491
 H         1.5570098957        1.2084958093      -16.2943917485
 H         1.4346817010        2.9131320851      -16.0811830248
 H         2.9451265945        2.1773451995      -15.6990677054
 H         4.4448259577        3.0549494385      -18.5624219966
 H         4.6257923356        2.7420103197      -16.9533338650
 H         3.6537906267        4.2172249211      -17.3832413587
 Na       -0.2989846491        0.1779939438      -18.6629555097
 Na       -4.0974849282       -3.7279719294       -6.8370090217
