232

 C         4.2909245198        0.2524359669      -18.5400726286
 C         2.8737743830        0.8518654907      -18.3870288115
 O         1.9430288411        0.1571751915      -18.7233410268
 C         2.6727144530        2.2489055755      -17.8432420453
 C         1.5936223144        2.9528119557      -18.9050888980
 O         0.5113142066        2.4443826494      -19.0950598507
 C         1.9090060566        4.2778310154      -19.6108443899
 C         0.7176923878        4.5978512906      -20.5524610582
 C        -0.5960715694        4.8095429157      -19.7132788592
 O        -0.6111520828        4.7687212719      -18.4925930585
 C        -1.9737098574        5.2184209509      -20.3634156827
 C        -3.0853723298        4.1608395716      -20.0661304293
 O        -3.4596850928        3.3978111115      -20.9368441682
 C        -3.5931248152        3.9685209988      -18.5216592886
 C        -4.4239644692        2.6981869081      -18.4339789114
 C        -3.5609048839        1.4300143539      -18.4148774437
 O        -2.5315434536        1.4165974524      -17.7815254539
 C        -4.0355948501        0.1735556408      -19.3124608781
 C        -2.8325204679       -0.8401193480      -19.2569997782
 O        -1.8087684152       -0.6506600219      -19.9263409968
 C        -3.0532054684       -2.1907599767      -18.4807476065
 C        -1.8426394291       -3.1004466891      -18.2160514293
 C        -0.9309723452       -2.4954529029      -17.0317575723
 O        -0.6217685185       -1.3370576646      -17.0342851272
 C        -0.6820983880       -3.4293468220      -15.9300346779
 C        -2.0225151649       -4.1828965378      -15.4041377102
 O        -3.0647478833       -3.5948913778      -15.7124917526
 C        -1.9668393016       -5.5286812112      -14.6887344242
 C        -3.1489350244       -5.8289288373      -13.6905381070
 C        -2.9767595135       -5.5625654485      -12.2277034406
 O        -1.9757775278       -5.1099971270      -11.7319825224
 C        -4.2061374538       -6.1607435063      -11.2463159741
 C        -3.9005481600       -5.6298113119       -9.8132710135
 O        -4.6766473097       -4.7626637031       -9.3409233497
 C        -2.7271573162       -6.0904392422       -9.0062995627
 C        -1.8716515598       -5.0536569096       -8.2721002991
 C        -1.5910649414       -5.3886432767       -6.8565579362
 O        -2.5794512157       -5.5260152724       -6.0702328932
 C        -0.1299581403       -5.6284028945       -6.3683219436
 C         0.7979056772       -4.5521219614       -6.9875412177
 O         0.3058042678       -3.5027554598       -7.3113698281
 C         2.3162688071       -4.8628071023       -7.0044631433
 C         3.1417044185       -3.5537852019       -6.6111235255
 C         2.5372418579       -2.6952917724       -5.5211378367
 O         1.6908158195       -3.2610996470       -4.8431488050
 C         2.6798599078       -1.1977246188       -5.3783975312
 C         1.2848833188       -0.4191201104       -5.6690065150
 O         1.2763745368        0.7619429454       -5.9590323925
 C        -0.0684756479       -1.1862477712       -5.4280291431
 C        -1.2052743709       -0.3643027726       -5.9621785573
 C        -2.5128832924       -1.1919644451       -6.1111344340
 O        -2.5065713633       -2.4034859396       -6.0218948330
 C        -3.9027156903       -0.4455891773       -6.3688879478
 C        -4.4132021742       -0.8295588211       -7.8082439270
 O        -4.2546304204       -1.9889859736       -8.2626624440
 C        -5.0957915284        0.1938512411       -8.6918744908
 C        -6.4527661091       -0.4272945066       -9.1428849081
 C        -7.5826984705       -0.3102530676       -8.2203745039
 O        -7.5497509649        0.3760951969       -7.2378412758
 C        -8.9122949096       -1.2700505820       -8.4883627691
 C        -8.4550162443       -2.7669884701       -8.2051456154
 O        -7.8920668596       -3.4092906426       -9.0552957926
 C        -8.6908945868       -3.3180197340       -6.7827205611
 C        -8.2893729367       -4.8401500370       -6.6788213615
 C        -6.8959984238       -5.1540053363       -6.0938941326
 O        -6.0993757141       -4.2237180897       -6.1116558380
 C        -6.5933238848       -6.5189919640       -5.5809376681
 C        -7.2501764939       -6.6635632683       -4.1756062011
 O        -8.4577517991       -6.8818228201       -4.1400641283
 C        -6.4952394830       -6.2345760292       -3.0059603660
 C        -7.3386612269       -5.6220918542       -1.9003326394
 C        -7.8935650168       -4.1902481334       -2.2558192864
 O        -7.9069301739       -3.7704865092       -3.4058134376
 C        -8.4863787276       -3.4694395259       -1.0551261084
 C        -7.5057969659       -2.2847894326       -0.5737423253
 O        -6.6451976683       -2.5215721845        0.1995925776
 C        -7.7803672160       -0.9757052613       -1.2590030788
 C        -6.5499224229        0.0773516617       -1.1534217385
 C        -7.1654900670        1.4111860320       -0.8108905198
 O        -8.3581178603        1.5956167676       -0.6995966904
 C        -6.2445551189        2.6981497156       -1.1209155115
 C        -6.3629962498        2.9060259412       -2.7085849586
 O        -5.7468362908        2.1131910681       -3.3926632522
 C        -7.4168984351        3.9251273285       -3.3244158280
 C        -6.7313945994        3.9630653749       -0.4010218400
 C        -4.8380670710        2.4012623905       -0.7148810569
 C        -9.8665385285       -2.8376534047       -1.2894813501
 C        -8.5685600207       -4.3560959376        0.2540380479
 C        -7.2702513841       -7.6323381396       -6.4493443027
 C        -5.0770867296       -6.8627713708       -5.5206642473
 C       -10.0163330089       -0.8219892684       -7.5914215120
 C        -9.3179649929       -1.2115279969       -9.9868455952
 C        -4.9279716085       -1.1402925835       -5.4436245431
 C        -3.8299094788        1.1191053117       -6.0579042971
 C         2.9133671025       -0.8639010699       -3.8311996165
 C         3.6953540496       -0.4404065775       -6.3308006569
 C         0.1084725775       -5.7358530227       -4.8390474173
 C         0.2761951970       -7.0790323675       -6.9464975367
 C        -5.6180874584       -5.5970789498      -11.6852242537
 C        -4.2601405501       -7.6655340323      -11.2821660934
 C         0.3606798789       -4.3874738260      -16.5886369102
 C         0.0066074060       -2.8244346923      -14.6888740703
 C        -5.4509182831       -0.5067532760      -18.8437996127
 C        -4.1795284878        0.6262142148      -20.7142262863
 C        -2.4365970274        6.5913187855      -19.7912943157
 C        -1.9312377249        5.4673830509      -21.8875069260
 C         1.9421177125        2.0201626342      -16.3960695175
 C         3.8749372602        3.2410427215      -17.5959262042
 H         5.0325036848        1.0228091364      -18.8508081162
 H         4.2934599122       -0.6125623156      -19.1399354115
 H         4.5707579625       -0.1798006841      -17.5736473742
 H         2.7981241768        4.3060295410      -20.2289159534
 H         2.0586858632        5.0802712403      -18.8608481673
 H         0.5264368048        3.7572405892      -21.1965026241
 H         0.9614685491        5.4952400291      -21.1405004706
 H        -4.2389401571        4.7900956187      -18.3083907276
 H        -2.7480919399        4.0446110427      -17.8224846811
 H        -5.1515850009        2.6912432645      -19.2492262045
 H        -4.9336898494        2.9159058168      -17.4904091671
 H        -3.6397205015       -2.7821791809      -19.1564193761
 H        -3.6816520406       -2.0039909025      -17.5859769080
 H        -1.3433926713       -3.0816430402      -19.2244184054
 H        -2.1734139649       -4.0405098364      -17.9185089404
 H        -1.0066863081       -5.4819670108      -14.1407030843
 H        -1.9458913009       -6.2872858015      -15.4426783626
 H        -3.3567898196       -6.8664138970      -13.8870833445
 H        -4.0320654941       -5.1612851581      -13.9825754392
 H        -2.1831236027       -6.7566985178       -9.6443577231
 H        -2.9910445971       -6.8263413134       -8.1840905372
 H        -2.4918952899       -4.1476902480       -8.3156452200
 H        -0.9712419792       -4.8564387664       -8.8508568564
 H         2.5995760760       -5.2316343005       -7.9516065694
 H         2.4718515806       -5.6295707209       -6.2621094617
 H         3.3016573631       -2.8973728837       -7.5196694183
 H         4.1645090313       -3.9242620649       -6.3944143472
 H        -0.1384965258       -1.2289551574       -4.4060775572
 H        -0.0629423567       -2.2010967420       -5.9009715296
 H        -0.8833829352        0.0997459081       -6.8786905553
 H        -1.3454643031        0.4701539479       -5.2314762205
 H        -4.4360265055        0.4435293095       -9.4983267860
 H        -5.4300329711        1.2105828182       -8.1723314464
 H        -6.1581788665       -1.5382618606       -9.2228542940
 H        -6.6553323598       -0.1196362407      -10.1761166799
 H        -9.7690393169       -3.1462035406       -6.5558328032
 H        -8.2027452710       -2.6574853661       -6.0314693775
 H        -8.3004804656       -5.2866690114       -7.6696806660
 H        -8.9956212912       -5.2225197627       -5.9262889381
 H        -5.7378587937       -5.5717276936       -3.2689769890
 H        -6.1117786785       -7.0444297775       -2.4311888707
 H        -6.6431518572       -5.5385709709       -1.0667164150
 H        -8.1111989275       -6.3344316243       -1.6609339190
 H        -8.6770547748       -0.5321559142       -0.8159337685
 H        -7.9682227703       -1.2074817907       -2.3287424937
 H        -5.9521586561        0.1305319217       -2.0469822307
 H        -6.0000523784       -0.3803485281       -0.3280246764
 H        -7.1638737594        4.8606042677       -2.8581891236
 H        -8.4268063337        3.6349312182       -3.1739425653
 H        -7.2878811715        3.9339345007       -4.4178228369
 H        -6.0952151146        4.6982586738       -0.8545120138
 H        -6.6071674686        3.9164143865        0.7033292922
 H        -7.7999774601        4.1584400638       -0.5025992659
 H        -4.6970559013        2.1138655889        0.3037094390
 H        -4.1943422785        3.2652361126       -0.8275374467
 H        -4.3769442788        1.4962810645       -1.1078549659
 H       -10.7787612113       -3.3678649421       -0.8502459343
 H       -10.0915692232       -2.7955082206       -2.3273192621
 H        -9.9628535425       -1.7645327365       -1.0859414843
 H        -8.9425998064       -3.7354537523        1.0179721118
 H        -7.6459859436       -4.7242144880        0.5910615637
 H        -9.1863929461       -5.2291452242        0.1153840057
 H        -8.2153421931       -7.8880703553       -6.0906372351
 H        -6.6814530097       -8.5198879939       -6.6630534027
 H        -7.5181190825       -7.2671769065       -7.4554839072
 H        -4.7256304091       -6.8838463027       -6.5556663752
 H        -4.7748255757       -7.8635817083       -5.1305079934
 H        -4.5023662268       -6.1608869582       -4.9413638116
 H       -11.0048298990       -1.2450997551       -7.7892764857
 H       -10.1507396194        0.2912132173       -7.8308010607
 H        -9.7445372363       -0.8775208089       -6.5208142490
 H        -8.6962442954       -1.8329023908      -10.5279183545
 H        -9.1932928290       -0.1594322935      -10.3264203960
 H       -10.3697788888       -1.5551522800      -10.1781440087
 H        -5.7098133844       -1.4790955069       -6.0728528190
 H        -5.5572330452       -0.5440451732       -4.8064917992
 H        -4.5153484904       -1.8949525947       -4.8890569322
 H        -3.4251658559        1.1967887349       -5.0522102674
 H        -4.7029167178        1.7962235232       -5.9874332261
 H        -3.1200026372        1.5698609616       -6.7119342462
 H         3.7754180332       -1.2209628309       -3.3925494240
 H         2.0893617713       -1.2917967663       -3.3535226348
 H         2.9932019009        0.2243101313       -3.8154440531
 H         3.3574551028       -0.4288104078       -7.3041588912
 H         4.7773265050       -0.7677906726       -6.3705708427
 H         3.6600429708        0.5942207804       -6.0974071202
 H         0.1930695384       -4.7654393647       -4.3262550042
 H         1.0106370965       -6.3431652014       -4.5610791159
 H        -0.7200667263       -6.2402330616       -4.4381290860
 H         0.1419110403       -7.0011413621       -8.0017380840
 H        -0.4092762919       -7.7200903645       -6.6393047702
 H         1.3118085567       -7.2749481445       -6.6463771621
 H        -5.7056123117       -5.5983598789      -12.7867089334
 H        -5.7841223276       -4.5749464916      -11.3216703522
 H        -6.4566283109       -6.1908473402      -11.2318954832
 H        -5.1448019554       -7.9750952271      -10.7047797400
 H        -3.4738871100       -8.2705195700      -10.9250910747
 H        -4.2475112994       -7.9619822548      -12.3057899809
 H         0.9577906535       -4.9127987251      -15.9277314883
 H         1.0979142164       -3.9072048700      -17.1318183972
 H        -0.2807221283       -5.0764174923      -17.1427127787
 H         0.5788684889       -1.9745795164      -15.0075148011
 H         0.6131262901       -3.5337729834      -14.1257419937
 H        -0.7001452188       -2.3641027172      -13.9963672717
 H        -5.7197460687       -1.2802031765      -19.5384026948
 H        -6.0795733027        0.3608766587      -18.7562256256
 H        -5.2554779928       -0.9294774176      -17.8822405335
 H        -4.9267146232        1.4770099578      -20.8159957632
 H        -4.5907839016       -0.1412426132      -21.2089189918
 H        -3.2939893072        1.0761007458      -20.9950475107
 H        -2.8687908260        6.3452388247      -18.8708665221
 H        -3.0437707021        7.0994962646      -20.4809205083
 H        -1.6035342075        7.3228754879      -19.5417179026
 H        -1.6097635637        4.6601956501      -22.5195165064
 H        -1.2512963709        6.2898876175      -22.0767544944
 H        -2.9179831773        5.6134049605      -22.1341813091
 H         1.1910822897        1.2051917771      -16.6035815946
 H         1.3160487063        2.8664912220      -16.0304099361
 H         2.6523660371        1.8209163610      -15.6644004753
 H         4.5572225180        3.1881514931      -18.4408133738
 H         4.5247011107        2.9600479324      -16.7634271465
 H         3.3137550330        4.2224237552      -17.4081746693
 Na       -0.3018967341        0.3514358477      -18.7790748169
 Na       -4.1084649789       -3.7544996615       -7.0136411938
