232

 C         4.3772922897        0.4240469126      -18.5886587375
 C         2.8771245859        0.8890365228      -18.4363060871
 O         2.0019128047        0.1300658880      -18.7629404390
 C         2.4851930319        2.3407430967      -17.9156630972
 C         1.5608202642        2.9923944853      -18.9120899289
 O         0.4716500739        2.4427931018      -19.1558335732
 C         1.8415657786        4.2310235761      -19.6398943894
 C         0.6579284040        4.6651046491      -20.6494129303
 C        -0.6645147666        4.8178678008      -19.7345748574
 O        -0.4594423655        4.7566663120      -18.5156207427
 C        -2.0825770571        5.2315226248      -20.2938941241
 C        -3.1543214280        4.1463206002      -20.0096208282
 O        -3.6127089272        3.4852871696      -20.8915268721
 C        -3.7373063645        3.9848588207      -18.5877202466
 C        -4.5371622219        2.6638043250      -18.4913756685
 C        -3.5775804595        1.4629421946      -18.3823578554
 O        -2.5610871958        1.4226204183      -17.7456494953
 C        -3.9213459173        0.1610648308      -19.2643500425
 C        -2.7306744627       -0.8716920136      -19.2505294825
 O        -1.7843204287       -0.6085203494      -19.9361660016
 C        -2.9361204911       -2.1787652388      -18.5591509885
 C        -1.8524020747       -3.1669570176      -18.1977493227
 C        -1.0389696912       -2.4180166194      -16.9849296694
 O        -0.7761803608       -1.2452490497      -17.0894511183
 C        -0.6492168174       -3.4460100090      -15.8457837765
 C        -2.0369368965       -4.0788058664      -15.2892352103
 O        -3.0989413994       -3.6089867486      -15.5988393850
 C        -2.0001633925       -5.4672845121      -14.6219110279
 C        -3.2172694001       -5.9210715609      -13.7202049080
 C        -3.0387146816       -5.5929049124      -12.1705723568
 O        -2.0344176372       -5.1407780069      -11.6803317599
 C        -4.1918735202       -6.1030434790      -11.2641859304
 C        -3.9249143915       -5.5493517177       -9.8025104907
 O        -4.6603966889       -4.7383192516       -9.2838869757
 C        -2.7369904496       -6.0837242690       -8.9954554812
 C        -1.8311094248       -4.9524992641       -8.3358512351
 C        -1.6097486826       -5.4057365659       -6.9026034103
 O        -2.6386854831       -5.5798967332       -6.2246183618
 C        -0.1908525089       -5.7481469520       -6.3005797735
 C         0.8377749598       -4.5948377731       -6.7885244124
 O         0.3699891925       -3.6039218560       -7.3301852778
 C         2.3214762662       -4.8588011471       -6.8354875194
 C         3.1719012845       -3.6091901219       -6.6870137687
 C         2.4142352924       -2.6453040500       -5.6350845075
 O         1.7313284609       -3.2361386321       -4.8046272649
 C         2.5326747254       -1.1213477597       -5.4567552976
 C         1.2175514915       -0.4384575902       -5.6385358578
 O         1.2188404441        0.7306729430       -5.9359746409
 C        -0.0424929627       -1.2317324514       -5.4001140381
 C        -1.3068400638       -0.4056718501       -5.8101887550
 C        -2.5394608625       -1.2560897449       -6.0664710253
 O        -2.4870329960       -2.4332896764       -6.1062922320
 C        -3.8604858817       -0.5652837989       -6.3183497427
 C        -4.3695464033       -0.8121333863       -7.8623038285
 O        -4.1695518419       -1.8702336783       -8.3123493259
 C        -5.1588943367        0.1771504071       -8.7104351404
 C        -6.4687034880       -0.4190939042       -9.3357983963
 C        -7.5746880824       -0.3846326167       -8.2380937535
 O        -7.5170218013        0.4020728560       -7.3340620880
 C        -8.8531387548       -1.2375436818       -8.4678393940
 C        -8.3956874622       -2.8243267796       -8.1893309511
 O        -7.9277204016       -3.4229596982       -9.1546433027
 C        -8.6760840907       -3.3574508541       -6.7690155818
 C        -8.3495967780       -4.8112687935       -6.4987447994
 C        -6.8558146389       -4.9964890798       -6.0677636499
 O        -6.0209054852       -4.1316152093       -6.1099379011
 C        -6.5608086824       -6.5763429281       -5.6201521549
 C        -7.2415484245       -6.6190839074       -4.1679650986
 O        -8.4160707970       -6.8731399603       -4.0706827868
 C        -6.3377430033       -6.3875433715       -2.9032799426
 C        -7.2972341851       -5.5655695202       -1.8503079438
 C        -7.9300737868       -4.2365981043       -2.2134190907
 O        -8.0457978894       -3.7391622367       -3.3099237007
 C        -8.4821004382       -3.4172074857       -0.9190955953
 C        -7.3808859139       -2.3104378099       -0.5865101829
 O        -6.5669829148       -2.5234573390        0.3127958589
 C        -7.5561505403       -1.0213816279       -1.2936818798
 C        -6.4487555948        0.0865039949       -1.1258986123
 C        -7.1342828432        1.4493967482       -0.9688991967
 O        -8.2689478886        1.5618911859       -0.6404131790
 C        -6.1990860916        2.7545717760       -1.1832888990
 C        -6.3100494254        2.8433632236       -2.6962789108
 O        -5.7154458677        2.0485612626       -3.3975789662
 C        -7.1403418161        3.9368657166       -3.4333339795
 C        -6.8099970186        3.9625831236       -0.3911472308
 C        -4.6698457609        2.5591802959       -0.8287184699
 C        -9.9311623807       -2.9150785806       -1.1870572363
 C        -8.6147535191       -4.3039678564        0.3339673856
 C        -7.2325158078       -7.6002912098       -6.5979880512
 C        -5.0361142647       -6.8889294802       -5.6994452000
 C       -10.1044791982       -0.9090670134       -7.5783914148
 C        -9.1830447134       -1.1531731649       -9.9778165780
 C        -5.0029870659       -1.1501582730       -5.3171086658
 C        -3.8152721577        0.9188451604       -6.0245650185
 C         2.8204198155       -0.8634486479       -3.8701849125
 C         3.6119461836       -0.4171089989       -6.2655833143
 C        -0.1007599662       -5.7100305219       -4.7480345032
 C         0.3365545919       -7.1240597931       -6.9143800963
 C        -5.5334980242       -5.5431705329      -11.7394350833
 C        -4.1509745148       -7.6596325671      -11.3977387838
 C         0.3682631882       -4.5341622708      -16.4277485919
 C         0.1159143684       -2.6649399138      -14.7055437082
 C        -5.2644238799       -0.3967120116      -18.7797640351
 C        -4.0791506109        0.4983024912      -20.8489712010
 C        -2.4902948440        6.5728321417      -19.6615987766
 C        -1.8948866898        5.4655846788      -21.8807720441
 C         1.7016368712        2.0510090758      -16.5809253419
 C         3.7619504631        3.1499360208      -17.6273875016
 H         4.8641177718        1.1584597332      -19.1841337527
 H         4.4043450315       -0.5909930975      -18.9776527504
 H         4.8842181044        0.2943153605      -17.6616691864
 H         2.6795084165        4.1011470421      -20.3117285433
 H         2.1379705393        4.9531346677      -18.8950108497
 H         0.6550390016        3.8925029829      -21.4517061853
 H         0.8558997435        5.5738014642      -21.0620723398
 H        -4.2569745437        4.9364895418      -18.3206168638
 H        -2.8823460739        3.9014863350      -17.8886925966
 H        -5.2572091410        2.5179044849      -19.3042672330
 H        -5.0349843719        2.7939881078      -17.4939422254
 H        -3.7026141670       -2.7676043949      -19.1688488880
 H        -3.4562936911       -1.9093745224      -17.6553302319
 H        -1.1600933879       -3.2820311365      -19.0657712619
 H        -2.3317747040       -4.0796622959      -17.9138609904
 H        -1.0451836171       -5.5674949099      -14.0876168482
 H        -1.9522155354       -6.1899628791      -15.4641995273
 H        -3.2235002076       -6.9743467450      -13.8818676738
 H        -4.0793062509       -5.5075829233      -14.0906346628
 H        -2.2060463102       -6.8904336527       -9.5472985981
 H        -3.0130023082       -6.6575626252       -8.1486232368
 H        -2.3719323949       -3.9936108740       -8.4984098279
 H        -0.8521116948       -4.8493417223       -8.8754911553
 H         2.3776777102       -5.2638164441       -7.7838169251
 H         2.5990817520       -5.6745933157       -6.1139959210
 H         3.5130762762       -3.1450015785       -7.6249605748
 H         4.1193561414       -3.9195110852       -6.1880992368
 H        -0.0937172101       -1.6222251090       -4.3155728331
 H         0.1136844823       -2.0174218534       -6.0815306877
 H        -1.0474827580        0.1655432246       -6.7253119892
 H        -1.4785115458        0.3493889685       -5.0551791772
 H        -4.4493353082        0.5048266788       -9.4573130037
 H        -5.5830176511        1.0650481825       -8.2498409798
 H        -6.2496198228       -1.3604851655       -9.8485501468
 H        -6.6902825086        0.3424557714      -10.1275599989
 H        -9.7199338204       -3.1396472446       -6.6507835855
 H        -8.2300077284       -2.7285287913       -6.0631647321
 H        -8.4210677396       -5.3832724360       -7.4087883454
 H        -8.9648929478       -5.1216500181       -5.6111395307
 H        -5.6181708593       -5.6741478768       -3.2195526367
 H        -5.9582146651       -7.2204914739       -2.3719677156
 H        -6.7870238181       -5.3967533134       -0.8689578990
 H        -8.1569799134       -6.2071685239       -1.6921250654
 H        -8.5291681838       -0.6422941599       -0.8651806210
 H        -7.6666305436       -1.1595379135       -2.3538417578
 H        -5.8037001591        0.0129891109       -1.9744917029
 H        -5.9116836674       -0.1763747338       -0.1692822711
 H        -6.9933733920        4.8843704749       -2.9209978331
 H        -8.1797014689        3.6459417360       -3.5298835470
 H        -6.7692921312        3.9784044090       -4.4374920679
 H        -6.4973952900        4.8707002073       -0.8862292776
 H        -6.5635459026        3.9589588473        0.6445788547
 H        -7.8486924558        3.8133664831       -0.4880895614
 H        -4.5250790661        1.9010087887        0.0038809254
 H        -4.3006320632        3.4422298402       -0.4769238695
 H        -4.0034736854        2.0064591839       -1.4698108114
 H       -10.7603481422       -3.6487029974       -1.0522721362
 H       -10.0034736714       -2.5816849557       -2.2060783324
 H       -10.1326391315       -2.0468314795       -0.7293325455
 H        -9.3121403068       -3.9030450907        1.0925029194
 H        -7.6896749093       -4.4703974871        0.7874138010
 H        -8.9125188009       -5.2642761955        0.0819284942
 H        -8.2043220362       -7.8363736400       -6.3097286431
 H        -6.6866532785       -8.5408929443       -6.7348437368
 H        -7.3476585013       -7.2396413318       -7.5991315828
 H        -4.7136202405       -6.7420675415       -6.7086023428
 H        -4.7040231198       -7.8762019595       -5.4180640941
 H        -4.4619628821       -6.2406434095       -4.9831010492
 H       -10.9517621238       -1.5897819260       -7.8164629180
 H       -10.5885829251        0.0903231356       -7.7687335364
 H        -9.8033444555       -1.0168877815       -6.4769218150
 H        -8.5231015212       -1.8424369251      -10.5824637388
 H        -9.1480349775       -0.1262574171      -10.3459694929
 H       -10.2114651348       -1.6081326282      -10.0857374275
 H        -5.9025577631       -1.3656801469       -5.8703869514
 H        -5.4040167689       -0.5882429385       -4.5755153140
 H        -4.5949236456       -1.9834888284       -4.7648243296
 H        -3.6145173828        1.0457576664       -5.0010141865
 H        -4.8245966171        1.3783967711       -6.0381608178
 H        -3.1318883625        1.5902951236       -6.6184346145
 H         3.8216950859       -1.1623004734       -3.5067690125
 H         2.0483434829       -1.5921055280       -3.4629901964
 H         2.7526196926        0.1574197572       -3.6426681750
 H         3.3729541067       -0.4785832644       -7.3145962958
 H         4.5201088473       -0.8459867003       -6.1107513963
 H         3.6772694099        0.6830474811       -6.1572083396
 H        -0.3035808598       -4.6611834444       -4.4841627132
 H         0.8852889971       -5.9146451245       -4.3661916423
 H        -0.8238625816       -6.3038036878       -4.2210535083
 H        -0.0607711569       -7.0664352782       -7.9521945709
 H        -0.1601423679       -7.9751916391       -6.4239988003
 H         1.3884060811       -7.0638281297       -6.8592588629
 H        -5.7793649976       -6.0156101258      -12.6531033210
 H        -5.5541880825       -4.4015971352      -11.8714132566
 H        -6.3236351582       -5.7447780864      -10.9671690259
 H        -4.7424903612       -8.0783999334      -10.5510607481
 H        -3.1897048259       -8.1776629580      -11.2656677350
 H        -4.3931267052       -7.9868100393      -12.4348407882
 H         0.6587583774       -5.2466662209      -15.6953688206
 H         1.3310039438       -4.1613815360      -16.7436127000
 H        -0.2488227624       -5.0683338400      -17.1736095921
 H         0.4260758665       -1.7139173766      -15.1963351507
 H         0.9322255635       -3.2194191787      -14.2655595514
 H        -0.4826622886       -2.2541767677      -13.8574976393
 H        -5.2940219413       -1.3246949026      -19.4033510699
 H        -5.9845213320        0.3343480381      -18.9810867179
 H        -5.1646827081       -0.7388774314      -17.6701485884
 H        -4.8150029252        1.1653491752      -20.9828489953
 H        -4.3767943013       -0.3927625418      -21.4161817858
 H        -3.2369712503        1.0748622490      -21.0226051233
 H        -2.7465248818        6.4241779299      -18.5776666626
 H        -3.2716168023        7.0015949574      -20.3543619405
 H        -1.7036187504        7.3644240987      -19.7310008893
 H        -1.6158110180        4.4792011703      -22.3009456463
 H        -1.0327288115        6.0878549351      -22.0167540994
 H        -2.8350115974        5.6938979892      -22.3736383594
 H         0.7820663548        1.5936809420      -16.9599174322
 H         1.3901195454        2.8872753156      -15.9739411060
 H         2.3510197136        1.3885431102      -15.9305536424
 H         4.4116767903        3.1561392687      -18.5545806744
 H         4.4176496772        2.5604522836      -16.9379545839
 H         3.4462882857        4.0940269293      -17.1612535137
 Na       -0.4026469940        0.5381788275      -18.7541344468
 Na       -4.1219535181       -3.9633825617       -7.1529615946
