232

 C         4.3376006034        0.6703419708      -18.6640051344
 C         2.8852077183        0.8905761683      -18.6110540649
 O         2.0474477744        0.0105296032      -18.8077745425
 C         2.3598247490        2.2670788018      -17.9476928262
 C         1.4171867576        2.9886133535      -19.0101812688
 O         0.4062369500        2.4082068234      -19.3084149170
 C         1.8072613398        4.2972535287      -19.8377982940
 C         0.5383483508        4.7572430799      -20.5991083061
 C        -0.6026779517        4.9821100497      -19.6130607542
 O        -0.5195442243        4.8026272301      -18.4389579909
 C        -2.0128658971        5.2674162800      -20.3130655880
 C        -3.1796870383        4.1249131386      -20.0377623710
 O        -3.7437521306        3.5508762074      -20.9663965763
 C        -3.7752598441        3.9554051062      -18.5736068314
 C        -4.4996838565        2.5430155589      -18.4495859976
 C        -3.5340728074        1.4490756402      -18.5274812421
 O        -2.5740400878        1.5323362158      -17.7446478891
 C        -3.8230958667        0.1524118698      -19.3514520374
 C        -2.7117000197       -0.9058661877      -19.3293593114
 O        -1.6559682150       -0.7170892018      -19.9163496766
 C        -3.1086047069       -2.2503477386      -18.6195276725
 C        -1.7683150928       -2.9883633189      -18.2787319075
 C        -1.0884579250       -2.5224760526      -17.0418112087
 O        -0.8235533818       -1.3058251736      -16.9312307364
 C        -0.6973255127       -3.4487695325      -15.8090566733
 C        -1.9932080826       -4.0251035871      -15.2200301076
 O        -3.0698706574       -3.5256299226      -15.4083485345
 C        -1.8635815332       -5.4759037274      -14.4321952127
 C        -3.1710072713       -5.8441737062      -13.7369444695
 C        -3.0258689500       -5.6304568051      -12.2205142164
 O        -2.0043872853       -5.1162079504      -11.7760763236
 C        -4.2199834411       -6.0400778071      -11.2897165452
 C        -3.8972948458       -5.4810635823       -9.8686552450
 O        -4.6609685118       -4.7661411304       -9.3073918321
 C        -2.6904380867       -6.1437124060       -9.0834185203
 C        -1.7106003304       -5.1106451346       -8.4163495546
 C        -1.5302677003       -5.4574693858       -6.9097700545
 O        -2.5046383503       -5.5199542775       -6.2562976732
 C        -0.1712329586       -5.7073368045       -6.3363147724
 C         0.8859756420       -4.6914676583       -6.8778254396
 O         0.4155026723       -3.6590891052       -7.3379575727
 C         2.4550944070       -4.8605966766       -6.6622174543
 C         3.0889735316       -3.4792775848       -6.6645133839
 C         2.4434477504       -2.7124936037       -5.5133162014
 O         1.7191742586       -3.3070462563       -4.7355545206
 C         2.5601006021       -1.1743328837       -5.4316558479
 C         1.0958601489       -0.3906961956       -5.7061856258
 O         1.0152189413        0.7794496531       -5.9655235269
 C        -0.1818999257       -1.2477729693       -5.4726027305
 C        -1.5163293422       -0.4177312490       -5.6354713100
 C        -2.6281809784       -1.3368451279       -6.0501511487
 O        -2.4207133971       -2.5772269601       -6.2057660397
 C        -4.0589499274       -0.6064243835       -6.2884024177
 C        -4.4308252862       -0.8688913154       -7.8396093906
 O        -4.0415903458       -1.9031424228       -8.3810401401
 C        -5.1487860055        0.2762340042       -8.6461220386
 C        -6.4761288590       -0.3233896634       -9.3202151681
 C        -7.6004356281       -0.3601667781       -8.2947968292
 O        -7.5158355352        0.3877068799       -7.3153999736
 C        -8.8024188814       -1.3994039911       -8.5344924311
 C        -8.4212222788       -2.8128815382       -8.2173298331
 O        -7.9338061416       -3.5302557715       -9.0665387193
 C        -8.6582741760       -3.3177600257       -6.7639981327
 C        -8.3377454175       -4.7659461456       -6.3710315959
 C        -6.8984620801       -5.0932837716       -6.1606306632
 O        -6.0706976285       -4.2132454588       -6.0311773818
 C        -6.5593021073       -6.5312637803       -5.7384080957
 C        -7.1760935873       -6.5592807257       -4.2236578169
 O        -8.3040979273       -6.9026511221       -4.0693717280
 C        -6.3728657006       -6.2543049246       -2.9701051764
 C        -7.2066445108       -5.5840492058       -1.7593187588
 C        -7.9357151049       -4.2940535289       -2.0122280490
 O        -8.1241414520       -3.8005532459       -3.1095925054
 C        -8.4627143336       -3.4872084552       -0.7798755210
 C        -7.3804286691       -2.3055849891       -0.5157256198
 O        -6.4747371921       -2.4909187143        0.2867675044
 C        -7.4022679463       -0.9991287995       -1.4330124211
 C        -6.3316773637        0.0450903271       -1.0446799082
 C        -6.9508598661        1.5034822626       -0.9087500540
 O        -8.1576711577        1.5874448010       -0.6197307787
 C        -6.2404433886        2.7798730420       -1.2267046402
 C        -6.1428561339        2.8340005977       -2.8487126007
 O        -5.6289889173        1.9125210126       -3.4736636253
 C        -6.8683019704        4.0115053014       -3.5293225535
 C        -6.8776350797        3.9163087976       -0.4409623098
 C        -4.6632321480        2.6856709684       -0.8783902708
 C        -9.8614368248       -2.9342004168       -1.2228929393
 C        -8.6769183926       -4.3849924508        0.5029359103
 C        -7.2629366551       -7.4551689929       -6.6629890083
 C        -5.0904479015       -6.8067186841       -5.7236719061
 C        -9.9648048029       -0.9269423251       -7.6613478817
 C        -9.1933560605       -1.1252779762      -10.0102248203
 C        -5.0520297242       -1.1971408719       -5.3317489728
 C        -3.8795586942        0.9766676467       -6.0283934208
 C         2.8688535429       -0.8994428660       -3.9270772720
 C         3.6678526741       -0.4764140102       -6.2221554130
 C        -0.4092710586       -5.7439657916       -4.7889547673
 C         0.2491429120       -7.1278628260       -6.8106028617
 C        -5.5322138221       -5.4918021589      -11.8022911376
 C        -4.1178271722       -7.5898829125      -11.3110166118
 C         0.1785340068       -4.5721306912      -16.2140893614
 C         0.1315344388       -2.4836042622      -14.7321230440
 C        -5.1949003354       -0.3174667005      -18.6834764631
 C        -4.0193040432        0.4459082652      -20.9507772027
 C        -2.4557232566        6.5967671017      -19.5275661855
 C        -1.9303345526        5.3850489099      -21.8540135711
 C         1.4971834059        2.1058936625      -16.7149113131
 C         3.6877989778        3.1535579244      -17.5967114094
 H         4.7314726415        1.2530821045      -19.4467752652
 H         4.5375985751       -0.4099815109      -18.6642145081
 H         4.8179734501        0.9415376318      -17.7486447484
 H         2.5769824364        4.1718224345      -20.6272849918
 H         2.1252100153        5.0337614182      -19.0787839855
 H         0.3393840399        3.9907848354      -21.3479229119
 H         0.6101954125        5.7202892228      -21.1438453733
 H        -4.4341283060        4.8759389541      -18.5404822855
 H        -2.9484179058        4.1663865814      -17.8817969945
 H        -5.1419746919        2.5039778871      -19.3507626936
 H        -5.0417212672        2.4084920412      -17.4982537253
 H        -3.7012359713       -2.9656021161      -19.2837499471
 H        -3.7051003710       -2.0672386659      -17.7260401282
 H        -1.0330462382       -2.8312507462      -19.0502483950
 H        -1.9722836674       -4.1280809217      -18.1028013005
 H        -0.9476475111       -5.4852653410      -13.7994778550
 H        -1.7034018415       -6.3138900379      -15.1877931265
 H        -3.3075072014       -6.8936672950      -14.0221187128
 H        -3.9484978261       -5.2915380789      -14.1978587369
 H        -2.1310161936       -6.8733291002       -9.7206589365
 H        -2.9379131639       -6.8122093208       -8.3229560598
 H        -2.0538507123       -4.0737680254       -8.6080048217
 H        -0.7576134979       -5.1655607321       -8.9991337577
 H         2.8267634107       -5.5060287586       -7.5451314817
 H         2.6094355658       -5.4314801018       -5.7509209173
 H         2.9371971874       -2.9190443894       -7.5778344369
 H         4.1731967551       -3.4800253673       -6.5498749746
 H        -0.1500494474       -1.6513197831       -4.3795182291
 H        -0.0474319146       -2.0632748922       -6.1726874458
 H        -1.4227262040        0.3610393982       -6.4429443552
 H        -1.7478436767        0.1052766933       -4.7349951974
 H        -4.4096312514        0.5257194757       -9.4424940585
 H        -5.4321412260        1.0969603705       -8.1653158360
 H        -6.1896106363       -1.2637551230       -9.6608591950
 H        -6.6608316162        0.3085829691      -10.1994227486
 H        -9.6945592487       -3.1648123536       -6.5941667154
 H        -8.1858955916       -2.6275797565       -6.1078948619
 H        -8.6513058443       -5.4053724437       -7.2133031490
 H        -8.7722580503       -4.9349865033       -5.3902552268
 H        -5.4584184011       -5.6132116261       -3.1306670481
 H        -6.1618219642       -7.2504773405       -2.5395789871
 H        -6.5699303447       -5.4479337834       -0.8737055708
 H        -8.0155428231       -6.3196854201       -1.5352186379
 H        -8.3805503825       -0.4914737549       -1.2416466319
 H        -7.2905129102       -1.1515607808       -2.4948079894
 H        -5.6580738885        0.0101471701       -1.9339651725
 H        -5.8421538245       -0.2811017796       -0.1220761133
 H        -6.8666962467        4.8957193795       -2.8946538692
 H        -7.8662547246        3.5229524374       -3.4945446608
 H        -6.6485616542        4.2570896096       -4.5629061233
 H        -6.6665183356        4.8959455128       -0.7934565432
 H        -6.5021815135        3.7890149169        0.5780425123
 H        -7.9547345366        3.6866192319       -0.5436470865
 H        -4.3431051738        1.8517466545       -0.2781650551
 H        -4.3246135269        3.5383397455       -0.2831595002
 H        -4.0370450300        2.4433967062       -1.6684746504
 H       -10.4516213540       -3.6325930297       -1.6268476755
 H        -9.8099700398       -2.0769316570       -1.9185048520
 H       -10.3538576883       -2.4131147974       -0.3814475675
 H        -9.3904720382       -3.9697480565        1.2266414281
 H        -7.6617037746       -4.4966623221        0.9703283871
 H        -8.9275910115       -5.4303665794        0.3517779277
 H        -8.3897328696       -7.3953632865       -6.5150816880
 H        -7.0354924361       -8.4710221432       -6.4419970492
 H        -7.0862786811       -7.3676540405       -7.7004348872
 H        -4.5440077689       -6.7594461323       -6.6725816887
 H        -4.9383792512       -7.7927974501       -5.3377899297
 H        -4.5982004790       -6.2699604803       -4.9252518766
 H       -10.8509970499       -1.6454384860       -7.7160544068
 H       -10.4646811838       -0.0805436894       -8.0840586158
 H        -9.6409694994       -0.8144842622       -6.6288738568
 H        -8.4561638504       -1.5401862451      -10.8106292728
 H        -9.3453591073       -0.0276999484      -10.0945907792
 H       -10.1017103585       -1.6763895866      -10.1674294977
 H        -6.1023843986       -1.1621482783       -5.5104261578
 H        -5.0506706148       -0.8414868773       -4.2425083935
 H        -4.5932525282       -2.1766680551       -5.0059591622
 H        -3.7060759309        1.2361797205       -4.9618059518
 H        -4.8114958011        1.4798897395       -6.1517906202
 H        -3.1513240744        1.5270469981       -6.6716469534
 H         3.9940976395       -1.0652225850       -3.6883062657
 H         2.2825745660       -1.7048799218       -3.4287337195
 H         2.7356390122        0.1636463976       -3.6547293436
 H         3.4476399633       -0.7012871802       -7.3090150142
 H         4.6597513105       -0.8333679756       -5.9703210513
 H         3.6974029816        0.5916723621       -6.2538532073
 H        -0.9932524464       -4.8929805668       -4.5376206804
 H         0.4523732294       -5.6712410384       -4.1901954749
 H        -1.0422263003       -6.6331467765       -4.5013665289
 H        -0.1713036322       -7.2482589705       -7.8258415199
 H        -0.3671459609       -7.8746136498       -6.1076056102
 H         1.3230059210       -7.1311805949       -6.6821728333
 H        -6.0356672836       -6.2747369218      -12.4148744812
 H        -5.4211352483       -4.5797096278      -12.3699042535
 H        -6.1369856356       -5.2170629292      -10.9695799786
 H        -4.2875216593       -8.0565930476      -10.3428433203
 H        -3.0224031336       -7.9256287483      -11.4423772944
 H        -4.5561088018       -8.0654168632      -12.2233492860
 H         0.2831200776       -5.3998640305      -15.4204835002
 H         1.2602183172       -4.2068558644      -16.2426654854
 H        -0.1797290593       -5.0162290467      -17.1104514912
 H         0.4089905893       -1.4812369142      -15.1758262197
 H         0.9526114684       -3.0714027166      -14.2871977727
 H        -0.4488214875       -2.1491874032      -13.8639277673
 H        -5.2639670837       -1.3585592112      -19.0283493996
 H        -6.0060084863        0.3848173831      -19.0397145892
 H        -5.0003271004       -0.3312634308      -17.6089992293
 H        -4.9245449812        1.0387993968      -21.1012812292
 H        -4.2077915967       -0.5261590871      -21.4703753656
 H        -3.1934935700        1.1395616690      -21.1699009340
 H        -2.1389266723        6.4155793575      -18.4330952373
 H        -3.5592932280        6.8203711332      -19.7729538562
 H        -2.0248024560        7.4982353125      -19.9091065593
 H        -1.7731059614        4.3406229026      -22.1974973346
 H        -1.0522617216        5.9629468915      -22.1381386191
 H        -2.9503286056        5.6037388810      -22.3176511755
 H         0.4733977941        2.1605647559      -16.9518950908
 H         1.6446359986        3.0183166285      -16.1400118610
 H         1.8576068494        1.2885795340      -16.0070903177
 H         4.2238631269        3.3532346463      -18.5581176597
 H         4.4588678530        2.5927152501      -17.0344351649
 H         3.3521104984        3.9536172698      -17.0031795496
 Na       -0.5393735438        0.6217259507      -18.5811592517
 Na       -4.0746531991       -4.1405878050       -7.2358796342
