232

 C         4.1640054731        0.7965669539      -19.0418013868
 C         2.6755631656        1.0541513506      -18.6615782246
 O         1.8706352774        0.1385955409      -18.6984284334
 C         2.2180395410        2.3716179134      -18.0374570695
 C         1.3292148650        2.9090901214      -19.2992537476
 O         0.3598146083        2.2478416393      -19.6937613173
 C         1.6798865630        4.2267358540      -19.9281080202
 C         0.4907912164        4.9406741671      -20.4937989365
 C        -0.7861307512        4.9756741275      -19.5841655873
 O        -0.6264361768        4.8999903640      -18.3326295681
 C        -2.1200618144        5.4118901716      -20.2804209254
 C        -3.2288753451        4.2017852553      -20.0556549205
 O        -3.7452419337        3.6033995824      -20.9400969138
 C        -3.7643765140        3.9340132226      -18.5316523882
 C        -4.4214991567        2.6215232186      -18.5883530729
 C        -3.4216909769        1.4174328603      -18.6084583872
 O        -2.3810380562        1.5826442543      -18.0673301096
 C        -3.8282478089        0.0862888547      -19.3771832115
 C        -2.6998589020       -1.0749660215      -19.3179916835
 O        -1.6445610974       -0.7622251417      -19.8337321581
 C        -2.9431762847       -2.4536568383      -18.6471608150
 C        -1.6728102201       -3.1445914320      -18.2295719867
 C        -1.0015091963       -2.4150336099      -16.9413059682
 O        -0.9218387391       -1.2341447120      -16.8577303925
 C        -0.6381808826       -3.3510046564      -15.7660903495
 C        -2.0041791012       -3.9761724296      -15.1706482487
 O        -2.9747840196       -3.2663473661      -15.0357497090
 C        -1.8298777667       -5.3122486887      -14.4879932457
 C        -3.0777041854       -5.7334316177      -13.6776461912
 C        -2.9841498091       -5.5674331985      -12.2524465361
 O        -2.0241102129       -5.0629206952      -11.7286752802
 C        -4.1232989090       -6.0547073171      -11.3562075232
 C        -3.7802612662       -5.5518252926       -9.8841276130
 O        -4.4973412427       -4.7824910311       -9.2866182782
 C        -2.5780914211       -6.2672110820       -9.2890041661
 C        -1.4893369354       -5.3919434923       -8.6388125235
 C        -1.4507885413       -5.5261072937       -7.1505060411
 O        -2.5049236024       -5.3573393811       -6.4938917792
 C        -0.1409690495       -5.8880954212       -6.3565405708
 C         0.9029692551       -4.8339516500       -6.8533137757
 O         0.4711446997       -3.9197061097       -7.5120692629
 C         2.4220264886       -4.8478471286       -6.5349913939
 C         2.9468375085       -3.4504967339       -6.5282847144
 C         2.3133665608       -2.5866168803       -5.3371666968
 O         1.7443112376       -3.2325819855       -4.4681965257
 C         2.4327242017       -1.1077657112       -5.2527703186
 C         1.0745929760       -0.4887029742       -5.5679201753
 O         0.9737326089        0.5986844690       -6.0693927114
 C        -0.1951909161       -1.3527119772       -5.4448667921
 C        -1.5571582381       -0.6524037163       -5.3440140102
 C        -2.7640850241       -1.3803286696       -5.9814417636
 O        -2.5957506244       -2.4678969521       -6.3323177635
 C        -4.0897506245       -0.5735408134       -6.3272556974
 C        -4.4082966414       -0.9222423315       -7.8511489319
 O        -4.1914541584       -1.9762628969       -8.3639846771
 C        -5.0896410617        0.1805047192       -8.6546137544
 C        -6.4197141608       -0.3375475635       -9.2587212076
 C        -7.5421757075       -0.4227178588       -8.2828305950
 O        -7.5295478307        0.1722812778       -7.2470623960
 C        -8.8192621763       -1.4166056217       -8.6199844636
 C        -8.4088217628       -2.7949427987       -8.1053002636
 O        -7.9553668635       -3.5801006462       -8.9212485830
 C        -8.5292783141       -3.0968932572       -6.6493098165
 C        -8.3857245601       -4.5422906129       -6.3507920734
 C        -6.9375460921       -4.9895117913       -6.0586564338
 O        -6.0815163660       -4.1594502202       -6.2379284632
 C        -6.6754812973       -6.4744365490       -5.6424429048
 C        -7.3165799434       -6.5735011788       -4.2123817782
 O        -8.3969337659       -7.0386178237       -3.9823808039
 C        -6.3958012401       -5.9351257686       -3.1646464065
 C        -7.0194357736       -5.6533482677       -1.7504696831
 C        -7.8672197490       -4.3369176225       -1.8336257332
 O        -8.0309413507       -4.0631588281       -3.0028469445
 C        -8.3937913193       -3.4972970063       -0.6775297342
 C        -7.1653290327       -2.3562946641       -0.5590842723
 O        -6.3773307705       -2.5240725225        0.3498564043
 C        -7.2458294289       -1.1375941969       -1.4510191236
 C        -6.1954283698       -0.0582434454       -1.0327607865
 C        -6.8530271382        1.2904520201       -0.9204860667
 O        -7.9740541145        1.4477796545       -0.5680008441
 C        -6.0487417016        2.6795385869       -1.3340010862
 C        -5.8824423460        2.8272968392       -2.9152502553
 O        -5.5297554004        1.8669535038       -3.5687557708
 C        -6.5127602349        4.0256701637       -3.6512473693
 C        -6.8611649668        3.9636364113       -0.8005712806
 C        -4.6146996246        2.7040081407       -0.8010525904
 C        -9.8140235444       -2.8826483565       -1.0605899376
 C        -8.4898093393       -4.1859374824        0.6410056498
 C        -7.3924555925       -7.5090954085       -6.4990277668
 C        -5.1790113040       -6.7706135265       -5.6707032020
 C        -9.9588234268       -0.7572583472       -7.8261810671
 C        -9.1668070960       -1.3718872249      -10.1277121426
 C        -5.2302540294       -1.3008167654       -5.4166120093
 C        -4.0899363778        0.9461761215       -5.9507355422
 C         2.8170358821       -0.6529977242       -3.8144900179
 C         3.4291400324       -0.5890439481       -6.3043584129
 C        -0.2605491818       -5.6899231862       -4.8439582534
 C         0.3122044423       -7.3145798360       -6.6425289071
 C        -5.5076342341       -5.4958511179      -11.8467691084
 C        -4.2611375783       -7.6183929381      -11.3202090075
 C         0.3907325085       -4.4000142971      -16.3580862355
 C        -0.1149574194       -2.5893449897      -14.5892258167
 C        -5.2097795229       -0.3320194301      -18.8083667540
 C        -4.0501445999        0.5354168781      -20.9086525499
 C        -2.6813789448        6.7415510011      -19.5477460348
 C        -2.0138067185        5.6404416050      -21.7955750780
 C         1.2047336082        2.1242690564      -16.8551322953
 C         3.2777016473        3.4079801277      -17.7087364358
 H         4.5787320561        1.4921501192      -19.8168780208
 H         4.2238627953       -0.2731413773      -19.2198469226
 H         4.7894944040        0.8948002255      -18.1347750537
 H         2.4129761406        3.8638762491      -20.6800575252
 H         2.1192317907        4.9296540514      -19.2100500284
 H         0.1917181784        4.4865411306      -21.4797455366
 H         0.6897679959        5.9966171174      -20.6744926224
 H        -4.4632371753        4.7146105275      -18.3907051563
 H        -2.9674458289        4.0407540582      -17.8096569976
 H        -5.0353674001        2.7441263626      -19.4560986319
 H        -4.9738876301        2.4733283949      -17.6615326873
 H        -3.3805690865       -3.0997183523      -19.3750798499
 H        -3.6866452926       -2.3808244222      -17.8437897752
 H        -0.8173034856       -2.9653620496      -18.9493120810
 H        -1.7839952796       -4.1740439032      -18.1156620406
 H        -0.8806099259       -5.2195150749      -13.9033853684
 H        -1.5411836708       -5.9908777605      -15.2818753358
 H        -3.4196125242       -6.7687755680      -13.9638639578
 H        -3.9336791543       -5.0132176309      -14.0391112787
 H        -2.1631803092       -7.0445731914       -9.9459114289
 H        -2.9346606764       -6.9888699792       -8.4739993684
 H        -1.6660275846       -4.3379029344       -8.8399052372
 H        -0.5635297136       -5.5264410174       -9.1439719498
 H         2.9439526646       -5.3769449882       -7.2814896474
 H         2.5660885682       -5.4061364331       -5.5679461848
 H         2.7048370303       -2.9057887756       -7.4622293120
 H         4.0456092562       -3.4067274313       -6.4284131270
 H        -0.0710203749       -2.0561701611       -4.6646292582
 H        -0.1358219745       -1.9633680496       -6.3940419294
 H        -1.4936171048        0.2606203068       -5.9038963271
 H        -1.7539821255       -0.3043159296       -4.2881019138
 H        -4.4250651855        0.5288961270       -9.4585651569
 H        -5.4103628248        1.0411038662       -7.9540815122
 H        -6.0688600051       -1.3372671226       -9.6301048708
 H        -6.6417927656        0.3000327321      -10.1018561548
 H        -9.6202799252       -2.8500635556       -6.3747994942
 H        -7.8863942430       -2.3222084268       -6.0963337401
 H        -8.6616836825       -5.0198840140       -7.2724142297
 H        -8.9724043853       -4.7642806648       -5.4481069286
 H        -6.3154606166       -4.8942309379       -3.4660674067
 H        -5.4128791499       -6.4443547409       -3.1490590241
 H        -6.2371222478       -5.5397533618       -0.9938662864
 H        -7.7303975840       -6.3936027672       -1.4218707103
 H        -8.1766858418       -0.5597152121       -1.4087282331
 H        -7.1361403614       -1.5163829847       -2.4876154888
 H        -5.3272298715       -0.0113520523       -1.6415292097
 H        -5.9641538831       -0.2250286673        0.0312600486
 H        -6.0923433438        4.9622675897       -3.2365775194
 H        -7.6077706121        3.9973169753       -3.6290402232
 H        -6.1189088738        3.9301576911       -4.6814781230
 H        -6.2198191992        4.9258658734       -0.9567706899
 H        -7.0140186621        3.9545678701        0.3092114695
 H        -7.7052542811        4.0900786623       -1.5123262167
 H        -4.2698478190        1.9863068024       -0.0082600567
 H        -4.3871208159        3.6327127199       -0.3082942746
 H        -3.8300602495        2.4860332520       -1.6217704471
 H       -10.2955662622       -3.6459164890       -1.8456604304
 H        -9.7752531686       -1.8504301283       -1.4887459535
 H       -10.5195601349       -2.7848767076       -0.2461970011
 H        -8.9047259097       -3.4709805627        1.4044022334
 H        -7.5644948900       -4.6654615106        0.9356500475
 H        -9.2285760052       -5.0271517821        0.6441776418
 H        -8.4102931841       -7.4016229544       -6.6961767060
 H        -7.3057560655       -8.4788970748       -5.9105009365
 H        -6.8899821102       -7.7499334651       -7.4768759141
 H        -4.8392634772       -6.9330925570       -6.6781672488
 H        -4.9632356478       -7.6737684101       -5.0789670934
 H        -4.5021532429       -6.0332479651       -5.2109032906
 H       -10.8526493528       -1.2286369918       -7.9143656934
 H       -10.2538437190        0.1732528750       -8.2400477281
 H        -9.6867990376       -0.7533016514       -6.7927115320
 H        -8.2708717173       -1.5447117763      -10.6415792558
 H        -9.5175726263       -0.4091558898      -10.3623562930
 H        -9.8634698569       -2.1875878266      -10.3778338092
 H        -5.9675493185       -0.4622326075       -5.1750092846
 H        -4.9596638300       -1.7034416589       -4.4794343696
 H        -5.6655923550       -2.2301632335       -5.7669062235
 H        -3.6247197953        1.0510824520       -5.0112924728
 H        -5.1121279314        1.3530084933       -5.7929518013
 H        -3.5945160669        1.6320269018       -6.6036968726
 H         3.7509836653       -1.0642747259       -3.5918273926
 H         2.0618465813       -1.0889782638       -3.1669819303
 H         2.9604859602        0.3923354879       -3.7853066973
 H         3.1797984292       -0.8130819735       -7.3382635088
 H         4.4210695972       -0.9180193426       -6.0402288379
 H         3.5443359762        0.5446017393       -6.2597434050
 H        -0.5815892407       -4.6695702182       -4.5175125484
 H         0.7949206549       -5.7328456878       -4.4631480552
 H        -0.8723815938       -6.3841711613       -4.3360701514
 H         0.7120505270       -7.2272011199       -7.6333309845
 H        -0.5030999998       -7.9556366910       -6.6071494391
 H         1.0283222002       -7.5045484103       -5.8770463228
 H        -6.2257317536       -6.2331324407      -11.9146539598
 H        -5.3599912478       -4.9612915257      -12.7923176056
 H        -5.8491774994       -4.7434034804      -11.1248479227
 H        -4.6492515962       -7.9460398720      -10.3524581972
 H        -3.4081623314       -8.2061839629      -11.3456026713
 H        -4.9489430780       -7.8985992925      -12.0948523753
 H         1.0048339996       -4.6535593795      -15.5402150165
 H         1.0257738664       -3.9697779834      -17.1452185751
 H        -0.0723496805       -5.3671691827      -16.7548542102
 H         0.7849329068       -2.0743435727      -14.8076647765
 H         0.0044152335       -3.3548399935      -13.8552751007
 H        -0.7243516310       -1.8064022753      -14.1472784821
 H        -5.5487916846       -1.1787989621      -19.3652908842
 H        -5.8195706036        0.4567005119      -19.0247166473
 H        -5.0761825633       -0.4874252444      -17.7383798481
 H        -4.7506354706        1.2897495715      -21.0917399078
 H        -4.4548891294       -0.4263380646      -21.3063472575
 H        -3.0492565794        0.8625487447      -21.2861011905
 H        -2.2365201662        6.8875163706      -18.6414938146
 H        -3.7079002434        6.7431088979      -19.5418022022
 H        -2.4584064133        7.5761528692      -20.2108608341
 H        -1.7960865842        4.6754740805      -22.2474196932
 H        -1.3570238690        6.4648327982      -22.1044011396
 H        -3.0171842221        5.7732772994      -22.0746221090
 H         0.2063428429        2.3784248648      -17.2377717074
 H         1.3501928657        2.7449068523      -15.9948174387
 H         1.3166678054        1.1093174199      -16.5752502441
 H         4.0291036732        3.4313801428      -18.4684819259
 H         3.6224643484        3.1384368948      -16.7333106717
 H         2.6813524452        4.2995307375      -17.5628362928
 Na       -0.3979040232        0.4100473836      -18.1789419315
 Na       -4.0510725331       -4.0317248716       -7.2246828337
