232

 C         3.7351313883        1.1877967638      -19.5665439324
 C         2.5566068327        1.2025223465      -18.5958855670
 O         2.1305023737        0.1616352757      -18.1294677459
 C         1.9568536635        2.5467065687      -18.1582434613
 C         1.0976502167        3.0857275811      -19.3564274485
 O         0.1913797998        2.3194047797      -19.7817823107
 C         1.2550452004        4.4367973446      -19.9658310611
 C        -0.0102021032        4.8184315061      -20.8403629013
 C        -1.0933122724        5.2380136318      -19.8516474620
 O        -0.9425724107        5.0270176427      -18.6143811304
 C        -2.5030552090        5.7128124232      -20.2331542582
 C        -3.2440395993        4.2943259550      -20.1182719283
 O        -3.4844125347        3.5693607615      -21.0231371924
 C        -3.7319535293        3.9316161182      -18.6399431571
 C        -4.3485945410        2.5319421368      -18.5997990233
 C        -3.2704339799        1.4394506009      -18.8138770543
 O        -2.1486567845        1.5643913772      -18.3653621332
 C        -3.7813342398        0.0614113420      -19.4649825133
 C        -2.7141292547       -1.1080229910      -19.3132434071
 O        -1.7086502677       -0.9669405093      -20.0046938440
 C        -2.9092469207       -2.2672252962      -18.3332137327
 C        -1.5995905555       -2.9013062751      -18.0127062413
 C        -1.0492979714       -2.2697477097      -16.6376543624
 O        -0.9641789239       -1.0556764566      -16.6046468099
 C        -0.5991016559       -3.2161449004      -15.5478098470
 C        -1.8432270689       -3.9228378413      -15.0204977436
 O        -2.9221805600       -3.3827225413      -14.9747116270
 C        -1.7776793324       -5.4582040191      -14.6510236542
 C        -3.0940817788       -5.8845426641      -13.9427867607
 C        -3.0133103953       -5.6791030354      -12.4992037188
 O        -2.0516675751       -5.0617134105      -12.0964215187
 C        -4.1611008563       -6.1771767745      -11.4651361027
 C        -3.6545667927       -5.9905623896       -9.8994798229
 O        -4.0243181734       -5.0290426734       -9.3146983879
 C        -2.6168471282       -7.0181029331       -9.1893716763
 C        -1.4502739989       -6.1629936065       -8.6878014640
 C        -1.3770798363       -5.8558447366       -7.2108535919
 O        -2.3946897590       -5.6996592727       -6.5230938530
 C        -0.0007626110       -5.8918207907       -6.4220910970
 C         1.0905965200       -4.7744786011       -6.8469343805
 O         0.9206263949       -4.0010711924       -7.7776811836
 C         2.4696587159       -4.8364768616       -6.1650373554
 C         3.1280966101       -3.4990136084       -6.1201789312
 C         2.4187448766       -2.6379526071       -4.9484862506
 O         1.9278421694       -3.2185057260       -3.9901076369
 C         2.3646737333       -1.0840452994       -5.1966674741
 C         0.8798317240       -0.6146682196       -5.6074791221
 O         0.7526159796        0.3823346439       -6.2527209398
 C        -0.3906742422       -1.2593531869       -4.9874725139
 C        -1.6228904342       -0.4639193232       -5.3935484890
 C        -2.7492778144       -1.3429668356       -6.0572783867
 O        -2.7865594471       -2.4947938611       -6.0521960355
 C        -4.1377016089       -0.5032418646       -6.4228957038
 C        -4.5974830350       -0.7916860789       -7.8195092623
 O        -4.5072673779       -1.9146739828       -8.2695195915
 C        -5.1797966940        0.3420269976       -8.6260060282
 C        -6.5674407531       -0.0012180328       -9.3002787661
 C        -7.5547581488       -0.5372511313       -8.3175175006
 O        -7.4374082355       -0.2441676772       -7.1517254306
 C        -8.7800710666       -1.4613163992       -8.7133940777
 C        -8.5569598521       -2.8542577839       -7.9981205183
 O        -8.1089681487       -3.7722686523       -8.6978766339
 C        -8.8855501358       -3.0604450893       -6.5242081488
 C        -8.6597438781       -4.4249968485       -5.9141015502
 C        -7.1748261733       -5.0020996402       -6.1275536986
 O        -6.3267915382       -4.2833066147       -6.6304184356
 C        -6.9183471738       -6.4230121819       -5.5374660126
 C        -7.2640564764       -6.4520795323       -3.9911280840
 O        -8.2519007940       -6.9956425074       -3.5572101985
 C        -6.1894835270       -5.9272844245       -2.9960901500
 C        -6.8145908395       -5.3252667956       -1.7042619529
 C        -7.8291432107       -4.2405321463       -1.8762355091
 O        -8.1526344501       -3.7979266781       -2.9442752857
 C        -8.1653772429       -3.4589325428       -0.5182430078
 C        -7.0267517474       -2.3683561266       -0.5768572660
 O        -6.0604181076       -2.4246377640        0.1801520641
 C        -7.2115858254       -1.1775550886       -1.5062953790
 C        -6.0910406258       -0.0747143985       -1.3508673101
 C        -6.7839368248        1.2918028539       -1.0438170670
 O        -7.9590083525        1.4098013375       -0.7533768698
 C        -5.9523792329        2.4987061240       -1.3134855015
 C        -5.6593034151        2.5259289200       -2.8747748752
 O        -5.2215955349        1.5523960555       -3.4338931807
 C        -5.7561217399        3.7596890808       -3.7080848260
 C        -6.6774124095        3.8430807413       -0.9288572948
 C        -4.5118483631        2.5086011854       -0.6790432541
 C        -9.4840629498       -2.6404769219       -0.4975086139
 C        -8.1915999371       -4.4548972880        0.7138152766
 C        -7.8261268922       -7.4210481170       -6.1544753760
 C        -5.5224910914       -6.8449864945       -5.9203640872
 C        -9.9364734894       -0.6244334712       -8.1355636856
 C        -8.8728309550       -1.5733998315      -10.3023618972
 C        -5.1316513777       -0.8910689723       -5.3457956796
 C        -3.9080150895        0.9717068884       -6.2468330320
 C         2.5581847985       -0.4318131705       -3.7380959531
 C         3.3848043826       -0.5458507293       -6.1468127248
 C        -0.1349005395       -5.7953946222       -4.9066228236
 C         0.6706173215       -7.2204403226       -6.8596219879
 C        -5.3907693721       -5.2394538663      -11.6372548924
 C        -4.5593475135       -7.6556938265      -11.6806376002
 C         0.3845928904       -4.3805629490      -16.1383435205
 C         0.3076174935       -2.3520477423      -14.4185057047
 C        -5.1431901938       -0.2166884603      -18.9369991849
 C        -4.0057065608        0.4424350798      -21.0342319805
 C        -2.8848592708        6.8130512803      -19.2171632506
 C        -2.6456951034        6.2607613216      -21.7157926420
 C         0.8949818432        2.3074937983      -17.0445241499
 C         3.0637201408        3.5375972114      -17.8037244222
 H         3.6081759561        1.8975044061      -20.4020271411
 H         3.7890524423        0.1463319179      -19.9669855013
 H         4.6364295766        1.4871608964      -19.0325439151
 H         2.0952270117        4.5698731561      -20.6920947710
 H         1.2479666929        5.0928412875      -19.0708161056
 H        -0.3827696236        3.9306708912      -21.5325670711
 H         0.2955197406        5.6275204476      -21.5056010325
 H        -4.4178575372        4.6684722925      -18.2703850429
 H        -2.8306310041        3.9841722018      -18.0070407168
 H        -4.9478135923        2.4720243211      -19.5007063010
 H        -4.9087951880        2.4902659250      -17.6669575567
 H        -3.5519113009       -3.0093790299      -18.7965732143
 H        -3.4847247673       -1.8336795321      -17.4961676103
 H        -0.8614911627       -2.6630153361      -18.8770655434
 H        -1.4790115556       -3.9417965203      -17.9942384657
 H        -0.8283150111       -5.7567052353      -14.1639425633
 H        -1.5926800405       -6.0142658843      -15.5840715103
 H        -3.3493715796       -6.9718228999      -14.2882932883
 H        -3.9650684353       -5.2480365638      -14.3832771510
 H        -2.1982104709       -7.8597502804       -9.7224656445
 H        -3.2221345879       -7.4351491534       -8.3334996722
 H        -1.3416712097       -5.2908216004       -9.3154879669
 H        -0.5440075926       -6.6208874906       -9.0777087157
 H         3.0905905123       -5.3695490072       -6.8597102275
 H         2.4568587608       -5.4722775998       -5.1871820850
 H         2.9151918503       -2.9056484353       -7.0004141770
 H         4.1945864054       -3.5461624551       -5.9340832890
 H        -0.2788712409       -1.2762285270       -3.8945085727
 H        -0.4554817147       -2.3516273651       -5.1617012940
 H        -1.4755390653        0.3475730356       -6.0584456906
 H        -2.1163342876        0.0407542283       -4.5122775971
 H        -4.4270775944        0.6285605387       -9.4447606411
 H        -5.4436290626        1.1734176900       -8.0271869261
 H        -6.3762164307       -0.8178241091      -10.0237272399
 H        -6.8746254993        0.8983805524       -9.7711433064
 H       -10.0006475386       -2.8008081400       -6.4623623345
 H        -8.2934306601       -2.3226649618       -5.9040663696
 H        -9.2582546984       -5.1933803257       -6.3455097658
 H        -8.7623574663       -4.3090168394       -4.8159065123
 H        -5.7117777481       -5.0244619968       -3.5053127912
 H        -5.3407833627       -6.6307457052       -2.6462236127
 H        -6.0508255924       -4.8012911488       -1.0826932497
 H        -7.1539726977       -6.1163284403       -1.0496016760
 H        -8.1891800899       -0.7017334816       -1.4188719104
 H        -7.1954188421       -1.5902166390       -2.5315803230
 H        -5.3532093908       -0.0661684023       -2.1346445886
 H        -5.6016795905       -0.3487431473       -0.3770570552
 H        -4.8802193041        4.3238974304       -3.3204429787
 H        -6.7290832378        4.2462682902       -3.5848006991
 H        -5.5060483413        3.5696668673       -4.7463500493
 H        -6.2287171047        4.7683256017       -1.4640391638
 H        -6.4537790617        3.9070704776        0.1400120886
 H        -7.7262084273        3.7727084125       -1.2589606028
 H        -4.5349989164        3.2077193021        0.1735285342
 H        -3.7653119015        2.8325484667       -1.3702847799
 H        -4.0259520587        1.5319540599       -0.4238200314
 H       -10.1997932625       -3.1195343180        0.1792584292
 H        -9.8914027558       -2.6893076476       -1.5788050740
 H        -9.3986210799       -1.6311057885       -0.0617410342
 H        -8.9839905314       -4.0190605127        1.4557669794
 H        -7.2791189862       -4.5946793060        1.3431954249
 H        -8.6308596517       -5.4459012767        0.4760739018
 H        -8.7683866730       -7.4880816690       -5.6816320508
 H        -7.4006664837       -8.4532326313       -6.0802808733
 H        -7.9938626300       -7.2202418608       -7.2253024497
 H        -5.4370374831       -6.8201381407       -6.9674943280
 H        -5.2112767949       -7.8384942604       -5.6245630641
 H        -4.7491333940       -6.1132661231       -5.5866705965
 H       -10.8355508618       -1.1464216469       -7.8805584363
 H       -10.1881279297        0.2582682396       -8.7406342962
 H        -9.5816139297       -0.2387804845       -7.1600719681
 H        -8.1538907658       -2.3019817307      -10.7357287866
 H        -8.5886343658       -0.6138363146      -10.5967540830
 H        -9.9357929773       -1.7026240418      -10.5892513089
 H        -6.1786903792       -0.5424093400       -5.5054522783
 H        -4.6629907156       -0.5732321685       -4.3896563342
 H        -5.3050788965       -2.0279185026       -5.0827646382
 H        -3.3916074521        1.1509777328       -5.3634592542
 H        -4.8638557351        1.5490771596       -6.2355257817
 H        -3.3166220695        1.4855833060       -7.0322221858
 H         3.6475870517       -0.4495271344       -3.5206932939
 H         1.9366237650       -1.0551039961       -2.9829218051
 H         2.0668091245        0.4947744797       -3.7280369083
 H         3.1924447300       -0.9460035212       -7.1913340284
 H         4.4101633800       -0.6002625638       -5.9510776804
 H         3.1639941049        0.5995986513       -6.2174493935
 H        -0.1315202517       -4.7218619299       -4.6238952000
 H         0.6848834015       -6.2124869469       -4.3198753146
 H        -1.0351401040       -6.2279339694       -4.5306312254
 H         0.6081826413       -7.3376918718       -7.9394001510
 H         0.1153893212       -7.9143866404       -6.1798982877
 H         1.6387961599       -7.2005983518       -6.5394990419
 H        -5.7439789511       -4.9962512829      -10.7170918339
 H        -6.1402394580       -5.7390184813      -12.2540479100
 H        -5.1318419490       -4.2973962301      -12.1120427657
 H        -5.4134795555       -8.0198026378      -11.0809135979
 H        -3.7149758649       -8.3261911424      -11.5312120450
 H        -5.0551529942       -7.7756503039      -12.6500800126
 H         0.5174832504       -5.1763246779      -15.4447931167
 H         1.1942466779       -3.8576757396      -16.5973454635
 H         0.0026071613       -4.8295982032      -17.0974463919
 H         1.3764717132       -2.5985977219      -14.5714183157
 H        -0.0300729301       -2.5619955027      -13.4068579213
 H         0.2478453996       -1.2295070474      -14.5669635435
 H        -5.4626348719       -1.2514389150      -19.0468455336
 H        -5.7875891070        0.3400912496      -19.4970456538
 H        -5.1475374064        0.2355437989      -17.9172339056
 H        -4.8395559895        1.0692086051      -21.0852462405
 H        -4.0534962295       -0.6065676234      -21.5728973974
 H        -3.0405827415        0.8209977825      -21.4733348478
 H        -3.3763998051        6.4473469862      -18.3106860504
 H        -3.5175062089        7.5957154622      -19.6691743228
 H        -1.9440002730        7.1863792276      -18.9409990013
 H        -2.4655620014        5.3788003713      -22.3949656951
 H        -2.0835344347        7.1887040279      -21.9096253909
 H        -3.6434595544        6.6949620336      -21.8423839211
 H         0.1405167705        3.0753432156      -17.1918324978
 H         1.2491418148        2.3870819708      -16.0529837518
 H         0.4140768017        1.3526538244      -17.2460558119
 H         3.5974220843        3.7427268568      -18.6990439009
 H         3.4951276055        3.1184291518      -16.9550789742
 H         2.5955658327        4.4556848247      -17.5901157770
 Na       -0.2637499698        0.3134521939      -18.7162532267
 Na       -4.0566677199       -4.1736211516       -7.2156800601
