232

 C         3.6084119116        1.1847347492      -19.6917375808
 C         2.5584555879        1.3716829739      -18.6122408357
 O         2.0530528889        0.3393296047      -18.1805905453
 C         1.9235607370        2.7459276874      -18.2004862143
 C         0.9926717309        3.0987667280      -19.4917231871
 O         0.2623165234        2.3066345555      -19.9515655916
 C         1.1619318724        4.3965741425      -20.2895132816
 C        -0.2303314486        4.8504250562      -20.8974170187
 C        -1.1273734921        5.3960165253      -19.7086701843
 O        -0.7566607543        5.3035529250      -18.5813832647
 C        -2.6674085908        5.7245874489      -20.1510970396
 C        -3.5449346283        4.3965885607      -20.1106611846
 O        -3.5131689659        3.6079336657      -21.0727702689
 C        -4.1055560736        4.0069327248      -18.7216669097
 C        -4.5362926966        2.5110133859      -18.8430974351
 C        -3.3143156649        1.4490773296      -18.8823525287
 O        -2.2419441376        1.6223059401      -18.3681756969
 C        -3.7287223314        0.0783880217      -19.5923847012
 C        -2.7414120347       -1.0307699413      -19.4401909262
 O        -1.8729405353       -1.2366587730      -20.2607327890
 C        -2.9513226269       -1.9968625383      -18.1513946265
 C        -1.8111979544       -2.8660114872      -17.8213153209
 C        -0.9439886839       -2.2437817630      -16.7313154910
 O        -0.5210199105       -1.1074124997      -16.6944077114
 C        -0.5551140049       -3.2607110417      -15.5924647351
 C        -1.9367254865       -3.9595342052      -15.1393395907
 O        -2.8282835352       -3.1425199153      -14.9097966802
 C        -1.8646603104       -5.4041391647      -14.7063671092
 C        -3.0204870368       -6.0203839540      -13.8542241861
 C        -2.9039976990       -5.8155478558      -12.3450959089
 O        -1.9952810626       -5.1641729803      -11.8809839795
 C        -4.1266673239       -6.2335967090      -11.5250546629
 C        -3.6025290203       -5.9372840616      -10.0027787230
 O        -4.0995490189       -4.9579471236       -9.4771101024
 C        -2.5877203674       -6.8706163940       -9.3343962812
 C        -1.1685403461       -6.2600988297       -8.8711102409
 C        -1.1282508516       -6.0273289465       -7.3397966429
 O        -2.1586034158       -5.7177356781       -6.7554587935
 C         0.1760110845       -6.1901455041       -6.5196860718
 C         1.1876613494       -4.9670330313       -6.9110478107
 O         0.8624514406       -4.2213107643       -7.7744611794
 C         2.4599336504       -4.8019175560       -6.0493430948
 C         3.0472107915       -3.3938821557       -6.0660579209
 C         2.4233061492       -2.5194601178       -4.8768945621
 O         1.8407684234       -3.0789059159       -3.9703960947
 C         2.3720690811       -0.9652687025       -4.9706607031
 C         0.9194825370       -0.6256281227       -5.5995610738
 O         0.7719990667        0.0585306750       -6.6024241269
 C        -0.3321984447       -1.2411727174       -4.9463104655
 C        -1.5689856991       -0.4227469826       -5.2996858525
 C        -2.8288107678       -1.1646973309       -5.9257695616
 O        -2.7254726004       -2.4217228713       -6.1106737449
 C        -4.0415506125       -0.4583410703       -6.3541505639
 C        -4.5867572776       -0.8442922410       -7.7563064906
 O        -4.6163531615       -2.0074411296       -8.0606390192
 C        -5.1820391823        0.2177190478       -8.6669760982
 C        -6.5461037245       -0.1736838226       -9.2581416745
 C        -7.5809421595       -0.6741681960       -8.2467449076
 O        -7.4327638148       -0.3114504335       -7.0944821125
 C        -8.7974492357       -1.6214880583       -8.7126575675
 C        -8.5989302171       -2.9837054499       -8.0830188845
 O        -8.3965073443       -3.9274475884       -8.7788337634
 C        -9.0524440993       -2.9936837231       -6.5907770206
 C        -8.8165112296       -4.2799354184       -5.8765981273
 C        -7.3540846764       -4.8806662597       -6.1235237505
 O        -6.4349837808       -4.1988838793       -6.4851488583
 C        -7.1140787587       -6.3523960986       -5.5102161588
 C        -7.2516493399       -6.3164786392       -3.9621493051
 O        -8.1856213520       -6.8540961396       -3.4200446021
 C        -6.1983897870       -5.4929151938       -3.2376418087
 C        -6.6508586767       -5.3578714502       -1.7253410537
 C        -7.7107828986       -4.2302781952       -1.6786139056
 O        -8.1469826245       -3.7941515027       -2.7671740644
 C        -8.0819605269       -3.4553701769       -0.3424946331
 C        -7.0511184225       -2.2986061888       -0.4001298788
 O        -5.9802278855       -2.5852020232        0.0833041104
 C        -7.1009558868       -1.2304358242       -1.4777290291
 C        -6.1116132671       -0.1222885031       -1.0977728881
 C        -6.7640365242        1.2369551412       -1.2062303136
 O        -7.9004196939        1.4615172253       -0.9019125852
 C        -5.7667832380        2.5385622476       -1.3825303001
 C        -5.3452290306        2.5712304463       -2.8851118806
 O        -4.9012339879        1.5687853022       -3.4310208024
 C        -5.5382074461        3.8998172813       -3.7168305825
 C        -6.5112204703        3.7965341899       -0.9391519423
 C        -4.4236786371        2.4228097213       -0.5213246480
 C        -9.5725521397       -3.0039412610       -0.5443035603
 C        -7.8574538060       -4.1931906613        0.9807584909
 C        -8.2285336537       -7.2055002652       -6.2157467275
 C        -5.7227862753       -6.8591776846       -5.9049135008
 C       -10.0592285125       -0.9862069562       -8.2392572580
 C        -8.8451805552       -1.7592993619      -10.2786978005
 C        -5.1242600159       -0.8560980318       -5.2428299103
 C        -3.7904884475        1.0900412191       -6.2953694435
 C         2.5643996119       -0.3985397090       -3.4798068517
 C         3.3815387606       -0.3844734256       -5.9347898757
 C        -0.2933896246       -5.9911540215       -5.0441404532
 C         0.9965017568       -7.6059018273       -6.5734662412
 C        -5.2588482763       -5.1531991525      -11.8876136986
 C        -4.5624777486       -7.7168248176      -11.7023246765
 C         0.6040320198       -4.2009972677      -16.1229171537
 C        -0.0565192100       -2.5564530005      -14.2417727983
 C        -5.1104193139       -0.3495674605      -18.8923296602
 C        -3.8275195415        0.3728250324      -21.1843004092
 C        -3.1831559219        6.7939474425      -19.0707241189
 C        -2.7366171417        6.2990466049      -21.5660007850
 C         1.0706661862        2.6457505778      -16.9573338655
 C         2.9101342140        3.9137138265      -17.8040887611
 H         3.1362790204        1.1751972378      -20.7086664023
 H         3.9129719862        0.1705790401      -19.5573049454
 H         4.4240581536        1.9417086688      -19.6192731352
 H         1.7414063088        4.1814396671      -21.1651081524
 H         1.5789695682        5.1527784776      -19.6523698736
 H        -0.6496805335        4.0151040001      -21.2816122114
 H        -0.1131230118        5.5193808220      -21.7644206179
 H        -4.9750687139        4.6710221992      -18.5328154585
 H        -3.3252138889        4.1466280012      -17.9819394395
 H        -5.3188744531        2.3718806412      -19.6083963796
 H        -4.9340390319        2.3542724561      -17.8198569591
 H        -3.8036495494       -2.6495973147      -18.3512043603
 H        -3.1990589375       -1.4632083761      -17.2289904260
 H        -1.1776948661       -3.2245017498      -18.5409121310
 H        -2.0085027484       -3.8703954309      -17.3723299817
 H        -0.8761560117       -5.3895157726      -14.3191937622
 H        -1.6121450883       -6.1013590400      -15.4892140098
 H        -3.1375163667       -6.9720564263      -14.2012932609
 H        -3.8906521044       -5.5628842247      -14.2259242733
 H        -2.4123685138       -7.6014657201      -10.1686006986
 H        -2.9515898418       -7.3465482740       -8.4028337552
 H        -0.9650276874       -5.3156334111       -9.4273731413
 H        -0.2912283289       -6.8270350712       -9.2691149285
 H         3.2645687082       -5.5269933102       -6.2634106142
 H         2.1815707518       -4.9966386442       -5.0884851959
 H         2.8370285111       -2.7163358411       -6.9063144340
 H         4.1221704872       -3.3594573957       -5.7913549451
 H        -0.2325981952       -1.5259027804       -3.9140265918
 H        -0.3486146078       -2.2388196803       -5.3927409319
 H        -1.3881589505        0.2098384745       -6.2188667260
 H        -1.8590102874        0.2659725773       -4.5503330392
 H        -4.5452884012        0.2569029355       -9.4778577971
 H        -5.3775759330        1.2900517058       -8.2607254654
 H        -6.3439774982       -0.8454215681      -10.1047032573
 H        -6.9732333777        0.8294576359       -9.6330909487
 H       -10.1158532551       -2.8459747774       -6.6453230593
 H        -8.5802634755       -2.1686526512       -6.0520971677
 H        -9.5196587392       -5.1238926962       -6.1496326972
 H        -8.7738964672       -4.1326252687       -4.7892074688
 H        -6.0104512334       -4.5193444074       -3.6458373118
 H        -5.2498100633       -5.9374868563       -3.2480901828
 H        -5.8281769051       -5.0818890570       -1.0804924000
 H        -7.0095297988       -6.3277987925       -1.3184869130
 H        -8.1330217980       -0.8498048389       -1.5255023765
 H        -6.8572325025       -1.5448584228       -2.4963420674
 H        -5.2263614398       -0.1418738087       -1.7790997389
 H        -5.7076804758       -0.2992855832       -0.1217361301
 H        -4.8924062934        4.7071188029       -3.4049861397
 H        -6.5958156401        4.1231825678       -3.8301200448
 H        -5.1404827490        3.5238448521       -4.6764933822
 H        -5.8877956495        4.6741187277       -0.9772099040
 H        -7.0032479990        3.5700826875        0.0536234225
 H        -7.2265369114        3.8629097497       -1.7745498783
 H        -4.6721954501        2.6340353539        0.5277511428
 H        -3.4568356761        2.8879562290       -0.9063710727
 H        -4.0731338874        1.4033510107       -0.6294017362
 H       -10.2752992933       -3.8578051749       -0.8876364560
 H        -9.6375936439       -2.2767333298       -1.2815340997
 H        -9.9752802703       -2.7318088812        0.4261837062
 H        -8.5147319267       -3.9267878694        1.7529389060
 H        -6.8554686914       -3.9569754757        1.3660662124
 H        -7.9427406543       -5.2785283909        0.8194637757
 H        -9.2050001603       -6.8567015266       -5.8306099916
 H        -8.2217480695       -8.2302204089       -5.8601639722
 H        -8.2483770566       -7.1874020266       -7.3291314653
 H        -5.3522829567       -6.9318419560       -6.9735682170
 H        -5.6365663765       -7.9186858208       -5.5568257902
 H        -5.0015683943       -6.2635125319       -5.3977191176
 H       -10.8857754058       -1.6127335206       -8.5326098915
 H       -10.0075519369        0.0412637147       -8.6000115675
 H       -10.2112347136       -0.7735335603       -7.2134916453
 H        -7.9191118771       -2.1060203731      -10.5504326381
 H        -9.0923398217       -0.7780738468      -10.7583986257
 H        -9.6796639141       -2.4059927054      -10.4688499671
 H        -6.1492547186       -0.7419910403       -5.6160459911
 H        -4.9397953112       -0.4549816742       -4.2936356364
 H        -5.1720159899       -1.8672545831       -5.1047532968
 H        -3.3181663658        1.3445805100       -5.2948859307
 H        -4.6898183746        1.6635325858       -6.3414514616
 H        -3.1464679213        1.4796198025       -7.0381512869
 H         3.5533717296       -0.5218250463       -3.2700736488
 H         1.9754804646       -0.8526509369       -2.7632924248
 H         2.1623892010        0.5965678454       -3.4966178485
 H         3.1910453341       -0.7443924935       -6.8825341776
 H         4.4166520850       -0.8137704690       -5.7418305787
 H         3.4591923138        0.6582309903       -6.0034048518
 H        -0.7770660236       -5.0392484315       -4.8741623826
 H         0.4994071451       -6.0708265089       -4.2767421858
 H        -1.0131264648       -6.7836747303       -4.7613152813
 H         1.4744404860       -7.5530585571       -7.5657956754
 H         0.3702373794       -8.3565493272       -6.3461458509
 H         1.8703642321       -7.5350801197       -5.8524649588
 H        -5.5720071327       -4.5285489076      -10.9862652607
 H        -6.1045475298       -5.6408400478      -12.3464401872
 H        -4.8256797644       -4.4441489682      -12.5834959950
 H        -4.9765922724       -8.0819135076      -10.7954109135
 H        -3.7403276345       -8.3247274276      -12.0760537470
 H        -5.3890838124       -7.8730183242      -12.3584625684
 H         0.3979228992       -5.1168748085      -15.6115259536
 H         1.5659076749       -3.7464195946      -16.0026093636
 H         0.6051949867       -4.4039920423      -17.1876726963
 H         0.9349014381       -2.1592603462      -14.3657989506
 H        -0.0196724248       -3.2525494383      -13.3886184477
 H        -0.7569182791       -1.7907998215      -13.9712167457
 H        -5.3615269640       -1.3116668682      -19.3556447462
 H        -5.9548376063        0.3825636618      -19.0388314419
 H        -4.9577392691       -0.5363714882      -17.8434545630
 H        -4.4739826255        1.2097838892      -21.1321520526
 H        -4.1575720115       -0.4451432489      -21.7222391792
 H        -2.8969540573        0.4627135586      -21.6514364953
 H        -2.9698031463        6.3439865017      -18.1546206720
 H        -4.2055576311        6.8869530003      -19.0155995864
 H        -2.5776880145        7.7448364660      -19.0925897885
 H        -2.3593452150        5.5410308666      -22.1660014045
 H        -2.2127089945        7.2249480666      -21.6316543785
 H        -3.7119663148        6.5716369667      -21.8597433933
 H         0.9536651635        3.6053697251      -16.4139181806
 H         1.6102426526        1.9262535655      -16.3165249962
 H         0.0753971898        2.3127880538      -17.1470681373
 H         3.5534802784        4.1773118227      -18.5933181766
 H         3.2299810192        3.5868876094      -16.8249097789
 H         2.2600248073        4.8206149557      -17.7732877845
 Na       -0.2727709754        0.1211500385      -18.7664904420
 Na       -4.1668315468       -4.3153619705       -7.1995190836
