232

 C       -18.6309418153       -5.0883117831       -5.2213222611
 C       -19.0215531060       -5.8433786946       -3.9296016869
 O       -18.1153501182       -6.6079346639       -3.5373498385
 C       -20.3874131905       -5.7035044594       -3.2082150230
 C       -20.0677473957       -6.0200119848       -1.6787746555
 O       -19.7258716891       -7.1342746579       -1.3241899380
 C       -19.9876539123       -4.8204511472       -0.6874204741
 C       -18.8028280168       -4.9201834663        0.2424584123
 C       -17.5170929386       -4.6631634594       -0.5065626000
 O       -17.5080955305       -4.1515047084       -1.6290461952
 C       -16.2197058293       -5.1032213461        0.0771781044
 C       -16.0519574098       -6.5693178885       -0.3303216652
 O       -16.8830176382       -7.3382284638        0.0734895838
 C       -14.8599982468       -7.0258791076       -1.1632597340
 C       -14.5450299304       -8.5054386045       -0.7314806281
 C       -14.8163278211       -9.4430652415       -1.9360978849
 O       -15.9014316425       -9.4414264319       -2.5001775986
 C       -13.6752448962      -10.3392230338       -2.5610565561
 C       -13.1362751190       -9.4765607212       -3.7353454488
 O       -13.5178088128       -8.3689102508       -4.0117369574
 C       -11.9941119092      -10.0316712920       -4.5534489813
 C       -10.8551578140       -9.0187900357       -4.9287323893
 C        -9.5252964268       -9.6953197936       -5.4002596679
 O        -9.2366120675      -10.8629232955       -5.1554494586
 C        -8.7675165202       -8.8930489335       -6.5254865726
 C        -8.6487124892       -7.3666253621       -6.1904070346
 O        -9.1470507895       -6.9328432218       -5.1901937974
 C        -7.5430737851       -6.5874590206       -7.0019925326
 C        -7.7979046079       -5.0688705973       -7.3420287855
 C        -8.6180966065       -4.8105772862       -8.6218266030
 O        -9.2295174038       -5.6597791832       -9.2015687444
 C        -8.6984530971       -3.3208012025       -9.1686767729
 C        -7.2899722099       -3.0416319656       -9.8341448157
 O        -6.3997725003       -2.5417561622       -9.1600921591
 C        -6.9658167234       -3.6442345778      -11.1911876744
 C        -5.4820244712       -3.5871405860      -11.6095930932
 C        -5.3267870705       -2.3892915219      -12.6824935053
 O        -6.0753903985       -1.4124787375      -12.5816341059
 C        -4.2225581370       -2.4709170231      -13.7369279904
 C        -2.8236507786       -3.1027514034      -13.0862491696
 O        -2.7704142852       -3.7595149637      -12.0572935984
 C        -1.4926219681       -2.6371668099      -13.7523616470
 C        -0.2026067409       -3.3380045845      -13.1934691421
 C         0.7989948402       -2.2250853520      -12.9879977793
 O         0.9046538153       -1.2585964988      -13.6637780003
 C         1.9029617326       -2.4993235760      -11.7097577937
 C         2.4741771564       -1.0706374331      -11.3833973158
 O         3.6578624307       -0.7987168209      -11.6573155949
 C         1.6491141844        0.0524972090      -10.6408925577
 C         2.4495935988        1.1456747720      -10.0083929176
 C         2.5796670601        2.5393999883      -10.8418556059
 O         1.9343616542        2.7232503615      -11.8009761986
 C         3.6579528347        3.6591914413      -10.4182013852
 C         4.0996255349        4.4302417783      -11.7654862670
 O         5.1832734093        4.0961407835      -12.2932272702
 C         3.3489069879        5.5900413071      -12.3027251746
 C         4.0698182720        6.9214343671      -12.1411103979
 C         5.2337180945        6.9135069049      -13.2299894100
 O         5.2013670180        6.1461509174      -14.1433069181
 C         6.5644592776        7.9546664742      -12.9921704039
 C         7.6596419829        7.6550740783      -14.0333096523
 O         7.7115473363        8.2505567532      -15.0432149259
 C         8.5619591661        6.5212613044      -13.6707386104
 C         9.2879157243        6.0919120206      -14.9500546675
 C         8.4365126807        5.9117492021      -16.1454577928
 O         7.3385479375        5.3590063406      -16.0380217474
 C         9.0451301352        6.1555945609      -17.5344394806
 C         9.8940699290        4.7337018779      -17.8042413363
 O        10.4344003990        4.0693586611      -16.9715804958
 C        10.2283145244        4.4281093128      -19.3278259383
 C         9.6886996697        3.0753100656      -19.9903008593
 C         8.2342591803        2.6511719736      -19.6228398948
 O         7.5495206471        3.4346875801      -18.9428610132
 C         7.6229968404        1.2423456171      -20.0083039394
 C         7.7502891537        0.2680891960      -18.7891442796
 O         8.2941912638       -0.7848718617      -18.8244391304
 C         7.0135596688        0.6627675699      -17.4292971218
 C         8.0527459247        0.3864642442      -16.2765429251
 C         7.4740031529        1.2523469277      -15.0704206440
 O         7.9754829873        2.3112335748      -14.7672662860
 C         6.1466300445        0.7139704730      -14.2511328171
 C         4.9296649329        1.5199569189      -14.8452069985
 O         4.9634830372        2.7448995578      -14.9001592708
 C         3.6943347250        0.6977153435      -15.4475022174
 C         6.0229214520       -0.8130239928      -14.4694323365
 C         6.3415558118        0.9932663648      -12.7330837874
 C         6.1461133701        1.2357993371      -20.3339809767
 C         8.4686014677        0.5845309230      -21.0941167862
 C         7.9755445808        6.3396225373      -18.6253412745
 C        10.0320940713        7.3492628634      -17.6041041677
 C         6.0434554190        9.4202151299      -13.1918533897
 C         6.9432837485        7.8071131413      -11.5333233071
 C         2.7687022640        4.7880290658       -9.7099067404
 C         4.6577190985        3.2308157290       -9.4167791290
 C         1.1937049452       -3.1006882496      -10.4760473636
 C         2.8381371850       -3.5976244483      -12.2229971160
 C        -4.5047727311       -3.4555098845      -14.8842438323
 C        -3.9981087661       -1.0045949070      -14.3379506865
 C        -9.9212097483       -3.1950037191      -10.1364548018
 C        -8.7656378845       -2.3249983084       -7.9571136697
 C        -7.1914427755       -9.3663278456       -6.6856642552
 C        -9.5736575122       -9.1007794279       -7.7916634347
 C       -12.5971978298      -10.6511131710       -1.5474369429
 C       -14.1999240466      -11.6058063417       -3.2657074338
 C       -15.0666191370       -4.2368570661       -0.3685074113
 C       -16.4008572953       -4.8427863719        1.5990283160
 C       -20.9881955916       -4.3333753091       -3.4806119939
 C       -21.2996146007       -6.7859013101       -3.8460824446
 H       -18.8414237160       -4.0483573133       -5.0810064845
 H       -19.2206294048       -5.4351807629       -6.1168026640
 H       -17.5373997649       -5.2157786301       -5.3696056493
 H       -20.9728585551       -4.8407483308       -0.1431681608
 H       -19.9533692499       -3.8626479587       -1.2206085692
 H       -18.8096973009       -5.8298726400        0.8743167188
 H       -18.9141593946       -4.1121215281        0.9883466318
 H       -13.9786880882       -6.4172061304       -0.9639407715
 H       -15.1368873848       -6.9595253230       -2.2438135188
 H       -15.3037089804       -8.7675276276        0.0299493968
 H       -13.5791293223       -8.5151017507       -0.4400481348
 H       -12.5726308256      -10.3733819629       -5.4648434466
 H       -11.6368304145      -10.9921038772       -4.1365725914
 H       -10.7242835484       -8.4784181668       -4.0051610805
 H       -11.0677663895       -8.2757751519       -5.7156392208
 H        -7.3270720767       -7.0394468277       -7.9291413651
 H        -6.6467588469       -6.6152720183       -6.4142693146
 H        -6.7372058019       -4.5820638472       -7.4615878175
 H        -8.4175530910       -4.4828502354       -6.6229916691
 H        -7.6451897494       -3.0715063924      -11.8914287469
 H        -7.3916147439       -4.6921832926      -11.2091280542
 H        -5.0846416412       -4.5487701637      -12.0905366670
 H        -4.9628496667       -3.3922555329      -10.6822411300
 H        -1.2201944454       -1.5853385318      -13.5718538527
 H        -1.3956532528       -2.6031044151      -14.8198484504
 H        -0.0827347752       -4.1508545722      -13.9123206781
 H        -0.4113121180       -3.8334025544      -12.3106747702
 H         0.9957715540       -0.4576773964       -9.8952593263
 H         0.9235273922        0.5119611015      -11.3719093361
 H         3.4296299952        0.6637463626       -9.7863714361
 H         2.0551433160        1.5321438667       -9.1064522290
 H         2.3210074633        5.7629173849      -12.0038457921
 H         3.3209618755        5.4979757184      -13.3936521119
 H         4.4249498746        7.0177384711      -11.1150727105
 H         3.4949190896        7.8053282520      -12.2191456914
 H         7.9376254255        5.7291580944      -13.2670308107
 H         9.2590729081        6.8764765252      -12.8578519799
 H         9.6497045420        5.1030641158      -14.8995152779
 H        10.1503857329        6.8708612611      -15.0511850200
 H        11.3480592868        4.4134456061      -19.3885115601
 H         9.9321550459        5.3004242231      -19.9138034577
 H        10.4149065275        2.1573198153      -19.8368922247
 H         9.7872098822        3.2795311313      -21.0437111636
 H         6.0377867512        0.1399407269      -17.4200335454
 H         6.7753254030        1.7107221528      -17.3884986098
 H         9.0792997915        0.7588358030      -16.5401169468
 H         8.2551386946       -0.6982011358      -15.9873994786
 H         3.9380396799        0.3895301115      -16.4214021170
 H         2.7786318394        1.2707173347      -15.4337831817
 H         3.4848291857       -0.2021190268      -14.8714347412
 H         5.1115879527       -1.1688647346      -14.0885661901
 H         6.7985728861       -1.4227726560      -13.9600857122
 H         6.0546937913       -1.1066453077      -15.4989689190
 H         5.5255693266        0.8170661710      -12.1092794126
 H         6.5057974990        2.0758928661      -12.4868793635
 H         7.3149012180        0.6475850100      -12.3745569984
 H         5.9826477102        0.2199416901      -20.7754038774
 H         5.9836177846        2.0033480719      -21.1833522954
 H         5.5513155390        1.7259719440      -19.5481102481
 H         8.0820365095       -0.3818388957      -21.3373156478
 H         9.4905395087        0.5518753427      -20.7572307054
 H         8.4081971291        0.9572731922      -22.0836411210
 H         7.3256775173        7.2319221945      -18.3273720773
 H         7.3674119471        5.4334600069      -18.6768722406
 H         8.4080967883        6.4139628529      -19.6104610250
 H        11.0311782274        7.2976170839      -17.0668094949
 H         9.4875189344        8.2813666292      -17.4464470520
 H        10.4465720921        7.4804022848      -18.6302625259
 H         6.8652343054       10.0187867242      -12.7295808343
 H         5.1715552849        9.7749970516      -12.6984993663
 H         5.9793638248        9.6307816480      -14.2617820617
 H         7.8409008967        8.3619311498      -11.3720640705
 H         7.0406552072        6.7695726924      -11.1696445407
 H         6.1569085425        8.2945398216      -10.9726624890
 H         2.6376628736        4.4523500020       -8.6056688358
 H         1.7056586691        4.8151993066       -9.9336393672
 H         3.0832574626        5.8442304411       -9.7273587064
 H         5.2297361964        4.0948636720       -9.1383599407
 H         5.3659712429        2.4954166025       -9.8234401017
 H         4.1622177769        2.7356474488       -8.5296391226
 H         0.2298543932       -2.6311610473      -10.5000449529
 H         1.8057323869       -2.8250254613       -9.5365567842
 H         0.9629051904       -4.2147840298      -10.5401149275
 H         2.1814124743       -4.4321383552      -12.5745035657
 H         3.5639346206       -3.9483752424      -11.4544352936
 H         3.3900701908       -3.0702116503      -13.0395899615
 H        -3.7284387543       -4.2501969294      -14.8938389312
 H        -4.4631672429       -2.9659785518      -15.8100418214
 H        -5.4899967384       -3.8971905425      -14.6999170878
 H        -3.1040878745       -1.0378491241      -14.9708063492
 H        -3.8778067630       -0.1764178191      -13.6583951688
 H        -4.7651890264       -0.7224139452      -14.9908158084
 H       -10.9184866236       -3.4859136316       -9.8634437446
 H        -9.7482403402       -3.6271605429      -11.1231878187
 H       -10.0883187701       -2.1979618456      -10.3177181083
 H        -9.7773081304       -2.2499169288       -7.5932697234
 H        -8.5141729473       -1.2414990200       -8.1608787108
 H        -8.1933136820       -2.5840080414       -7.0484581466
 H        -7.1491923245      -10.4351246374       -6.5314970178
 H        -6.5439008658       -8.8752948706       -5.9549226088
 H        -6.7997482763       -9.0930201596       -7.6726670686
 H        -9.8869517120      -10.1346041555       -7.8953148257
 H        -8.9493089240       -8.7742065319       -8.6870589809
 H       -10.4714116576       -8.5034652160       -7.5478663621
 H       -11.9980098401       -9.8190706013       -1.1287416770
 H       -11.8733405901      -11.3539257153       -1.9292880638
 H       -12.9112780188      -11.1111843186       -0.6390867926
 H       -14.7400335635      -11.3194829548       -4.1484306193
 H       -14.7840494004      -12.3435688569       -2.6287139885
 H       -13.3987141231      -12.1873311874       -3.7813614059
 H       -14.6368176100       -4.2688106199       -1.3047580568
 H       -14.1492031152       -4.3578353780        0.2448150964
 H       -15.3030379614       -3.1699086912       -0.2225769413
 H       -17.2319590797       -5.2732854399        2.0321261550
 H       -16.5411808137       -3.7104013122        1.7326670958
 H       -15.5636598706       -5.0734972571        2.1686863025
 H       -20.2129981284       -3.5493463968       -3.2648981077
 H       -21.9575079889       -4.0404620207       -2.9918005204
 H       -21.1987519914       -4.2517806622       -4.4674512840
 H       -22.3685771896       -6.7317276059       -3.4491044984
 H       -20.9078547347       -7.7347577167       -3.4863766868
 H       -21.3763123317       -6.7020862062       -4.8940990845
 Na      -17.5523188656       -8.1832348981       -1.7252792367
 Na        6.5558225105        4.2645470080      -14.3570976420
