232

 C         3.8609734783        1.4243969548      -19.3905298847
 C         2.5459470769        1.6164655622      -18.7133797249
 O         2.0017743330        0.5356988438      -18.3876426460
 C         1.8477697989        3.0389537354      -18.5740363733
 C         0.8162543727        3.2262761956      -19.7489026740
 O        -0.0437751846        2.4114026605      -19.9629089082
 C         0.7618463750        4.5398235594      -20.5480399948
 C        -0.6210089526        4.8952244208      -20.9465270881
 C        -1.3550384373        5.5282149954      -19.7613827021
 O        -0.9025845773        5.6335687737      -18.6222086471
 C        -2.8438991292        5.7901101883      -20.0105765961
 C        -3.5048590700        4.3750430682      -19.9769314286
 O        -3.5520352366        3.7422311641      -21.0232527290
 C        -3.9720052980        3.7696814637      -18.6286644200
 C        -4.7206308091        2.5099104789      -18.9777100720
 C        -3.7007083637        1.2987673306      -19.0836731089
 O        -2.6023523167        1.4118829324      -18.5795867425
 C        -4.0815702550       -0.0325683737      -19.8911584900
 C        -2.8850822677       -0.8778682608      -19.3329140289
 O        -1.7827358337       -0.9626728103      -19.8833698350
 C        -3.0411242655       -1.6524401546      -17.9664995265
 C        -1.9093234937       -2.7513345320      -17.8084029913
 C        -0.7178384880       -2.3865298752      -16.7407846077
 O        -0.0946041562       -1.3976158001      -16.8532549904
 C        -0.4215903954       -3.2754392528      -15.4648760763
 C        -1.7428747483       -4.0666723708      -15.0629602127
 O        -2.8408809229       -3.5318380874      -15.1541888867
 C        -1.6848677267       -5.5176607150      -14.7527074049
 C        -2.9045816966       -6.1129991810      -14.0163925665
 C        -2.6548179206       -5.8558716772      -12.4995534840
 O        -1.5566352156       -5.5132485660      -12.1221099848
 C        -3.8527347651       -6.1344836239      -11.4228107471
 C        -3.3307146874       -5.8426695681       -9.9540666560
 O        -3.8431805334       -5.0425233736       -9.2339862033
 C        -2.3083265684       -6.8911243964       -9.5099536490
 C        -1.1127883270       -6.1375847331       -8.8365948424
 C        -1.2333214085       -5.9569818776       -7.3606309243
 O        -2.2249201840       -5.6044070038       -6.7328393123
 C         0.0892624898       -6.2675609920       -6.5233076964
 C         1.0697475087       -5.0743377836       -6.9014027812
 O         0.9747543029       -4.4680450622       -7.9460566706
 C         2.2084791994       -4.7717292991       -5.9866387627
 C         2.7620639262       -3.4009131309       -6.0822035705
 C         2.2574415980       -2.6380698424       -4.7847521849
 O         1.8223672199       -3.2131651518       -3.8090364693
 C         2.2825696495       -1.0879943728       -4.8425796429
 C         0.9766345964       -0.7212210448       -5.6937435704
 O         1.0388669884       -0.2075974761       -6.7742564944
 C        -0.3627148836       -1.2739482259       -5.1344046305
 C        -1.5274492825       -0.3823812831       -5.4353060952
 C        -2.7086318387       -1.2400048063       -6.0021204265
 O        -2.4276423465       -2.3967621288       -6.1750378785
 C        -4.1446433674       -0.5228377916       -6.2191275362
 C        -4.7766482291       -1.1881916351       -7.5482162553
 O        -4.7504479055       -2.2808382864       -7.8702038505
 C        -5.3817929545       -0.1142764896       -8.4676213623
 C        -6.4058467590       -0.7468115133       -9.3831566024
 C        -7.7319059136       -0.8263203063       -8.6651494611
 O        -7.8071221512       -0.2862435190       -7.5724034323
 C        -8.9828626794       -1.7050864174       -9.0206741444
 C        -8.9319022253       -2.9946577178       -8.0716860706
 O        -8.9391448357       -4.0723304396       -8.6761240502
 C        -8.9442675294       -2.8637563140       -6.5006515435
 C        -8.8830253691       -4.2142277829       -5.8227254209
 C        -7.3906897604       -4.7977667694       -5.9128281647
 O        -6.4469631705       -4.1060898817       -6.1813950174
 C        -7.2517120448       -6.3199654043       -5.5091759524
 C        -7.2506615040       -6.2975744517       -3.9073693743
 O        -8.1503176423       -6.8220367202       -3.2887519728
 C        -5.9139168225       -5.7027394550       -3.2589165512
 C        -6.3749397808       -5.1574945199       -1.8350221485
 C        -7.5881491111       -4.2384050009       -1.7370782558
 O        -8.2591313384       -3.9322116673       -2.7161155663
 C        -7.8475890858       -3.5788346743       -0.3452900464
 C        -6.8603009436       -2.3804050911       -0.2204598306
 O        -5.7596034302       -2.4876039787        0.2937916626
 C        -7.3747576370       -1.0344732322       -0.7088400600
 C        -6.2356643082       -0.0302276169       -1.1348366170
 C        -6.6332155094        1.4536950891       -1.2634422726
 O        -7.7132845058        1.8176822119       -1.6045734853
 C        -5.4609244758        2.6842663700       -1.1820024750
 C        -4.9156623546        2.6594178453       -2.6789752488
 O        -4.0604637787        1.8487011467       -3.0249617451
 C        -5.3133400763        3.8825033368       -3.6528351603
 C        -6.2773432009        3.9620970968       -0.7882776902
 C        -4.3756830733        2.3741271330       -0.1180979435
 C        -9.2204432817       -2.9199095654       -0.0201242668
 C        -7.5551204494       -4.6130350872        0.7681988490
 C        -8.3899713277       -7.2316528016       -6.0024297260
 C        -5.9245213372       -6.8337491948       -6.0599939492
 C       -10.2340923597       -0.7943265488       -8.7650147413
 C        -9.0037590165       -2.2675542519      -10.4960905445
 C        -4.9740195054       -0.9359923545       -5.0327046633
 C        -3.9348466295        1.0027522127       -6.2978651223
 C         2.1638475515       -0.4012248801       -3.5128605766
 C         3.5285867161       -0.5399877148       -5.6288007527
 C        -0.2845019759       -6.3350556633       -5.0313162326
 C         0.6905116386       -7.6282227588       -7.0451241695
 C        -4.9281705566       -5.0699632507      -11.6324094134
 C        -4.3652184209       -7.5505053118      -11.6647171803
 C         0.7583473447       -4.2490528804      -15.6268826443
 C        -0.1126714919       -2.2186243605      -14.2829142429
 C        -5.6069658961       -0.5027074917      -19.5864574324
 C        -3.7773541899        0.2685199931      -21.3815641485
 C        -3.2868290952        6.6864893201      -18.9419569289
 C        -3.0349396614        6.5371737993      -21.3198498907
 C         0.9771579343        3.0473572494      -17.2918624481
 C         2.8911362739        4.1357158535      -18.4852074647
 H         3.9660715383        0.3501707747      -19.7108753204
 H         4.5934530064        1.4685079149      -18.6028328511
 H         4.0276645394        2.2196611421      -20.1608372833
 H         1.4327272568        4.2883853348      -21.3932682542
 H         1.1156502845        5.4360491251      -20.0588366952
 H        -1.1818598749        4.0579339990      -21.1698587624
 H        -0.7253939861        5.5054660369      -21.8732719227
 H        -4.6238023284        4.5030171574      -18.1748597937
 H        -3.1517963164        3.5222407050      -17.9933440776
 H        -5.4510966134        2.6622466308      -19.7811711592
 H        -5.3438680270        2.2314638903      -18.1228018775
 H        -3.9179383239       -2.2528595340      -17.9365403840
 H        -3.1714373453       -0.9055458797      -17.1959579141
 H        -1.3898163122       -2.9104067218      -18.7239150556
 H        -2.2088198421       -3.7976735110      -17.5458263257
 H        -0.8025282930       -5.8162450498      -14.1965621436
 H        -1.3141902799       -5.8702456647      -15.7159454878
 H        -3.0551226876       -7.1392724193      -14.2536960148
 H        -3.8482425426       -5.6037660139      -14.3330143919
 H        -1.9446915171       -7.3708215349      -10.4484047994
 H        -2.8333740249       -7.5370746109       -8.7669814248
 H        -1.0133933117       -5.1537969001       -9.3871687648
 H        -0.1821904510       -6.6655677512       -8.9533290111
 H         3.0143413071       -5.4753132965       -6.2181475651
 H         1.9111742372       -5.0527270172       -5.0404234236
 H         2.3219200890       -2.8074618173       -6.9105691622
 H         3.8703566746       -3.3018444380       -6.0204457301
 H        -0.2937553774       -1.4835899150       -4.1362321336
 H        -0.4629734727       -2.2635291335       -5.6415297650
 H        -1.2339804664        0.4449638200       -6.1590346565
 H        -1.9417807717        0.0516697490       -4.5544845407
 H        -4.6485601119        0.2436456167       -9.1257222569
 H        -5.8592759548        0.8202957909       -7.9217682750
 H        -6.0516719187       -1.7776367529       -9.6148332008
 H        -6.5245722567       -0.2470600578      -10.3773892201
 H        -9.9195972022       -2.4092828709       -6.1616978246
 H        -8.1286824314       -2.0872688403       -6.2619761249
 H        -9.5426075556       -4.9989410958       -6.2908078324
 H        -9.1653101762       -4.1840392074       -4.7722393689
 H        -5.4384131609       -4.9184686522       -3.8619273790
 H        -5.0898930566       -6.4178206467       -3.2226935453
 H        -5.6426537427       -4.5558464028       -1.3234899450
 H        -6.5039609725       -6.0393888656       -1.1642595926
 H        -7.7823163646       -0.6000445354        0.2172848515
 H        -8.2107478844       -1.0683072647       -1.4218430351
 H        -5.9053598765       -0.1863491700       -2.1939630266
 H        -5.3540281652       -0.3139738488       -0.6438588723
 H        -5.1436442686        4.8349722220       -3.1341103488
 H        -6.3739969435        3.7352559359       -3.8546228182
 H        -4.6966188825        3.7746101819       -4.5736669262
 H        -5.5146484858        4.7619227824       -1.0578784635
 H        -6.4814083894        3.9039844177        0.3014355541
 H        -7.3339355871        3.9929999371       -1.0739900330
 H        -4.8799078503        1.9553227829        0.7665691113
 H        -3.7460407640        3.3063666559        0.1004383837
 H        -3.7365849821        1.5061827577       -0.4567109579
 H        -9.9500766180       -3.7629110161        0.4042754779
 H        -9.6771834990       -2.5726520864       -0.9540032800
 H        -9.0152738896       -2.1508491421        0.7058461776
 H        -7.4015472315       -4.0101662128        1.6802280505
 H        -6.6367328092       -5.2234965610        0.8298264260
 H        -8.4597598565       -5.2982452390        0.8202423288
 H        -9.2877369743       -7.2082192467       -5.4409782851
 H        -8.0441533460       -8.2829786590       -6.0906338467
 H        -8.5771588361       -6.8379932387       -7.0545465807
 H        -6.0699229821       -6.8090742206       -7.1550886412
 H        -5.7159789338       -7.8849990834       -5.9452356405
 H        -5.1241082753       -6.2171975679       -5.8574209450
 H       -11.1270735407       -1.3472758542       -8.6880519506
 H       -10.2327713734       -0.0898929746       -9.6175238165
 H       -10.2014278685       -0.1660580342       -7.8973061531
 H        -8.5580325503       -3.1699386819      -10.4206625880
 H        -8.5581433513       -1.5598407826      -11.1831831287
 H       -10.0374326416       -2.4273760419      -10.7915837246
 H        -6.0200451215       -0.4810481855       -5.0908122646
 H        -4.6210041925       -0.5603430128       -4.1097682252
 H        -5.3014560586       -1.9546871901       -5.0670919439
 H        -3.5760499726        1.3748634514       -5.3118715385
 H        -4.8650412308        1.5683892038       -6.3666361193
 H        -3.2743664979        1.2489007828       -7.0814719292
 H         3.0033203262       -0.4625434846       -2.8904760342
 H         1.2889797760       -0.8124044022       -2.9728731061
 H         1.9302515233        0.6091445847       -3.7777243711
 H         3.6729570770       -0.9881432287       -6.5794229999
 H         4.4767904002       -0.7592818061       -5.1243633802
 H         3.4198855892        0.5549301607       -5.8687245410
 H        -0.7266156169       -5.3957231847       -4.6996870252
 H         0.5124307737       -6.6372681190       -4.3042635783
 H        -1.0633326167       -7.0444776515       -4.8398992806
 H         0.9892858827       -7.5163604964       -8.0791560366
 H        -0.0594035322       -8.3613368966       -7.0162244594
 H         1.5327688089       -7.8483928688       -6.4209913474
 H        -5.8784680603       -5.4150298084      -11.3048398040
 H        -5.0276566736       -4.7102145041      -12.6228809888
 H        -4.6414265697       -4.2569130235      -10.9917011770
 H        -5.1235971116       -7.7472847810      -10.9058729457
 H        -3.5902787206       -8.2989606169      -11.6757627501
 H        -4.6976455604       -7.6707323124      -12.6554511579
 H         1.0363528266       -4.6460461378      -14.6795658250
 H         1.6547542993       -3.7431068780      -15.9794166061
 H         0.4296519638       -5.0994594648      -16.2920052347
 H         0.5503175084       -1.4745558834      -14.6369143120
 H         0.5233914691       -2.6333531337      -13.4921739263
 H        -1.0792296363       -1.9406631397      -13.8966972820
 H        -5.7300108527       -1.5209187125      -19.8959131535
 H        -6.2881170352        0.1315532322      -20.0720114805
 H        -5.8809152843       -0.5233522367      -18.5281825259
 H        -4.4144719605        1.0126272305      -21.5992634528
 H        -3.8603368716       -0.5609066988      -22.1096168488
 H        -2.7411184463        0.5685998696      -21.4207873506
 H        -3.0678122352        6.3226873741      -18.0100407486
 H        -4.3184774933        6.8859169217      -18.9742680386
 H        -2.7499974405        7.6440072570      -19.0542512739
 H        -2.9090823858        5.9810238169      -22.2649029286
 H        -2.2895639347        7.3904965673      -21.3099462633
 H        -4.0405018442        6.8800264712      -21.2497479389
 H         0.6537598441        4.0756478159      -17.0429978105
 H         1.5168174953        2.5775443550      -16.4880403344
 H         0.1136530098        2.5142788337      -17.4152794270
 H         3.3922372451        4.2503694614      -19.4167908288
 H         3.5712946365        3.8714587195      -17.6967131275
 H         2.2664859553        5.0011116658      -18.2201362635
 Na       -0.3662951323        0.3879800675      -18.5249636291
 Na       -3.9982448349       -4.1616849934       -6.8734638075
