232

 C         4.0651538247        1.5726015790      -19.0272998182
 C         2.5506033263        1.6613201356      -18.7954636065
 O         1.9291116622        0.6702066134      -18.6718989697
 C         1.8969037084        3.0978716036      -18.6680250400
 C         0.7618804257        3.2955378859      -19.8210594567
 O        -0.1450175707        2.4935803789      -19.8858334985
 C         0.7968601998        4.4970550070      -20.7628121663
 C        -0.6913431679        5.0701293093      -21.2194698257
 C        -1.4110528664        5.5767961940      -19.9455853972
 O        -0.8118416778        5.5400049424      -18.9282182620
 C        -3.1448272605        5.9278560950      -19.8725093256
 C        -3.6988689972        4.4713873440      -19.9686625598
 O        -3.5820645811        3.8473389766      -21.0221316254
 C        -4.2920058375        3.8150020138      -18.7165771898
 C        -4.7868496708        2.3704135113      -19.0237737503
 C        -3.6490631261        1.3807999607      -19.0613283394
 O        -2.7067959430        1.5219500035      -18.2807188969
 C        -3.9604383517       -0.0104627832      -19.8668500783
 C        -2.7703303147       -1.0182341467      -19.3165295396
 O        -1.7258808718       -0.9912562428      -19.9104941941
 C        -3.0027933575       -1.7671746575      -18.0007793279
 C        -1.9585416301       -2.8511614337      -17.8073167150
 C        -0.8238345519       -2.4328128047      -16.8743495810
 O        -0.3548303788       -1.2797999980      -16.9483563149
 C        -0.4718128441       -3.2183431257      -15.5804551010
 C        -1.7478833751       -4.0678508633      -15.1940904454
 O        -2.8198913785       -3.5046889977      -15.1196225318
 C        -1.7439624583       -5.5428010075      -14.8712092363
 C        -2.8028751551       -6.0224971785      -13.9428672881
 C        -2.5536450404       -5.8678387697      -12.4011323787
 O        -1.5104229727       -5.5972111637      -11.8329322896
 C        -3.8007255860       -6.0764306351      -11.4889910263
 C        -3.3176872165       -6.0477137210      -10.0212305247
 O        -3.8404432053       -5.2125297504       -9.2626144034
 C        -2.1782526141       -6.8509608710       -9.4242423078
 C        -1.1942520543       -5.8634575375       -8.7371664043
 C        -1.2401089816       -5.9312201797       -7.1471525458
 O        -2.2637633725       -5.6982344932       -6.5300807666
 C         0.0754061835       -6.2848457709       -6.4853618599
 C         1.0819707766       -5.1314295904       -6.8526057657
 O         1.0617270000       -4.5391287383       -7.8917212602
 C         2.2498346779       -5.0043547069       -5.9115847273
 C         2.8615277860       -3.5832134523       -5.9055477740
 C         2.3363630632       -2.7129697933       -4.6519640315
 O         1.9243330083       -3.2326669405       -3.6409478074
 C         2.3354279593       -1.1157484354       -4.8808093472
 C         1.0591829358       -0.7151774162       -5.6717151750
 O         1.0313269896       -0.1022299691       -6.7297600431
 C        -0.3219078006       -1.2685615445       -5.2015117048
 C        -1.5504667861       -0.4883528730       -5.8324934973
 C        -2.7736783581       -1.2565443036       -6.1709865207
 O        -2.7126524629       -2.4776860711       -6.1593534518
 C        -4.2175025338       -0.5199323779       -6.2524792466
 C        -4.8389264393       -1.0735875825       -7.6261231052
 O        -4.7755413980       -2.3860336298       -7.7978321039
 C        -5.3799333073       -0.1643183682       -8.7384114583
 C        -6.5175607967       -0.8627070167       -9.5119230799
 C        -7.8859303185       -0.8962275526       -8.6975725324
 O        -7.9626134976       -0.0784008094       -7.7996639861
 C        -9.0302669551       -1.8486747525       -9.1091380541
 C        -9.0889088900       -3.1786412669       -8.1432324568
 O        -9.2222458486       -4.2656271735       -8.5722677020
 C        -8.9579079085       -2.7608559078       -6.6178622147
 C        -8.7851649890       -4.0463796006       -5.8096005776
 C        -7.3850112132       -4.7490023504       -5.9155072151
 O        -6.3507169151       -4.0830016120       -6.0693931712
 C        -7.2126539210       -6.3161478512       -5.4978466836
 C        -7.2238016225       -6.3052373567       -3.9026998822
 O        -8.0412649118       -6.9645422164       -3.3299659282
 C        -6.0355522554       -5.5270132827       -3.1887630247
 C        -6.2595967773       -5.1010145853       -1.8161296202
 C        -7.3999107496       -4.0831658795       -1.7086822779
 O        -8.1973150392       -3.8359369680       -2.5789433705
 C        -7.7694892072       -3.4614634537       -0.1731632613
 C        -6.7774985986       -2.1981795179       -0.0563701556
 O        -5.6044928705       -2.3888075162        0.1418272415
 C        -7.1611492678       -0.7568400860       -0.3580166276
 C        -6.1322123037        0.0719775097       -1.1165806652
 C        -6.5345204448        1.5306931818       -1.3421330212
 O        -7.5866474067        1.7821823927       -1.9171586726
 C        -5.4224627086        2.6002269640       -1.0471576141
 C        -4.7027025192        2.6706746217       -2.5055448560
 O        -3.7585079009        1.9354474418       -2.7079062778
 C        -5.3335679279        3.7102871856       -3.4672660364
 C        -6.0458671163        3.9802040038       -0.7380552305
 C        -4.3956256280        2.1659860804        0.0366996773
 C        -9.2797221626       -3.2782121419       -0.2500701843
 C        -7.2161913133       -4.4914625466        0.8587913980
 C        -8.4865239963       -7.0562093466       -6.0722597290
 C        -5.8921381031       -6.8682310361       -6.0183925770
 C       -10.2999350045       -1.0782236339       -8.8700968717
 C        -8.9237652695       -2.2112018065      -10.6322275912
 C        -5.0461206173       -1.0928486558       -4.9991375022
 C        -4.1148490130        1.0538917612       -6.2389916798
 C         2.1742407289       -0.5287772723       -3.3605231723
 C         3.6028441334       -0.5663800568       -5.5833330402
 C        -0.1406804625       -6.3709569730       -5.0438645158
 C         0.7814484091       -7.6682367601       -7.0823892550
 C        -4.7274095128       -4.9036221013      -11.8237683370
 C        -4.6718479872       -7.4308700046      -11.7697243418
 C         0.9042596482       -3.9888979717      -15.8331560685
 C        -0.3655409432       -2.3299035989      -14.2562541577
 C        -5.3264303066       -0.5480206810      -19.6172335337
 C        -3.7827667251        0.1695312951      -21.4952552202
 C        -3.5120970844        6.7108649509      -18.6312049008
 C        -3.6030739298        6.5632098393      -21.2269852625
 C         1.1714643187        3.1302262371      -17.3482866251
 C         3.0053696073        4.1997534256      -18.6963559515
 H         4.2394875329        0.5690566317      -18.7379137978
 H         4.7838660651        2.2299384004      -18.4856791065
 H         4.1937613843        1.6516476236      -20.0953295022
 H         1.2723259079        4.3541197142      -21.7191606446
 H         1.3408467512        5.2950891030      -20.2351551187
 H        -1.2427190302        4.2669555181      -21.8095628402
 H        -0.5983613170        5.8379099985      -21.9589694007
 H        -5.0676679265        4.4913856092      -18.2666375945
 H        -3.4375682115        3.7155585201      -17.9726314793
 H        -5.2903672962        2.2643647144      -20.0005096442
 H        -5.6162071085        2.0037216188      -18.3711157493
 H        -3.9902400250       -2.3239247252      -17.9659193343
 H        -3.0753533129       -0.9860162452      -17.2129144921
 H        -1.5475406813       -3.1573415869      -18.7951600634
 H        -2.2500222192       -3.7632195652      -17.3183796360
 H        -0.7791142762       -5.9421365641      -14.4997981209
 H        -1.7652818508       -6.0595254197      -15.8480714602
 H        -2.6938226179       -7.1058197545      -14.0980892456
 H        -3.7292968102       -5.7670107845      -14.3634098924
 H        -1.5364036527       -7.4014686635      -10.1052997143
 H        -2.7309596613       -7.4327341454       -8.7103602894
 H        -1.6203116132       -4.8836739018       -8.9523118563
 H        -0.1575034771       -6.0048588760       -9.1507871319
 H         3.0016912727       -5.7309304130       -6.2684605346
 H         1.9847864313       -5.3926473851       -4.8666128402
 H         2.7873150925       -2.9880936267       -6.7963383159
 H         3.8773805474       -3.6606889874       -5.5599335693
 H        -0.4391864797       -1.1445650992       -4.0216586743
 H        -0.1629354859       -2.3116461383       -5.4632905203
 H        -1.2707007007       -0.0514649904       -6.7640344930
 H        -1.8731717111        0.3191414395       -5.1269736106
 H        -4.5497661673       -0.0447129017       -9.4790424824
 H        -5.6761309416        0.7749818448       -8.4139179736
 H        -6.3586286461       -1.8855200352       -9.8693962421
 H        -6.7883820244       -0.3457910788      -10.4513425188
 H        -9.7607605244       -2.1320917179       -6.3566493476
 H        -8.1358441122       -2.1362128551       -6.5429019849
 H        -9.3649824672       -4.8623188668       -6.1632091698
 H        -8.9444614779       -4.0533824755       -4.7080366340
 H        -5.5007094221       -4.8255262823       -3.7816673626
 H        -5.2821728759       -6.2864867091       -3.1206767304
 H        -5.3900271867       -4.8701579896       -1.1542584376
 H        -6.6814251297       -6.0089663654       -1.4161644021
 H        -7.5073515184       -0.1805230106        0.5112330019
 H        -8.0316976679       -0.8340186092       -0.9990103098
 H        -5.7521706416       -0.4698815396       -1.9614299122
 H        -5.1863115541        0.0801018072       -0.5012056535
 H        -4.7837568221        4.5685316028       -3.1048343033
 H        -6.4221765664        3.8265503048       -3.4059584453
 H        -4.9551124751        3.4304361163       -4.4287291320
 H        -5.4000772475        4.7603869676       -0.7951839107
 H        -6.6028853601        3.9863154484        0.1689668469
 H        -6.8958456998        3.9167145162       -1.3704976680
 H        -4.7946545391        2.1500438483        1.0698868558
 H        -3.6529459739        2.9650594134       -0.0056723060
 H        -4.0457442830        1.1770531986       -0.1036243249
 H        -9.6020590639       -4.2729494395       -0.1127593681
 H        -9.5567587060       -2.9743491144       -1.2294838412
 H        -9.5454633050       -2.5289149276        0.4797838858
 H        -7.6458152756       -4.4864734843        1.8291541779
 H        -6.1541473936       -4.3626071715        1.0435530096
 H        -7.3033972090       -5.4233426993        0.3933830554
 H        -9.3689260227       -6.6607872836       -5.4699874630
 H        -8.4108800236       -8.0785173785       -5.7671731957
 H        -8.6487285360       -6.9649473465       -7.1120070398
 H        -5.5674568896       -6.5980537853       -7.0347929609
 H        -5.8995861584       -7.9690182582       -6.0418754578
 H        -5.0849014567       -6.5708493307       -5.2483735776
 H       -11.2661108341       -1.6476039596       -9.1553743088
 H       -10.3470164089       -0.1239797531       -9.4058846618
 H       -10.3791979850       -0.9092190181       -7.7760288818
 H        -8.3465141703       -3.1792153115      -10.8179041522
 H        -8.5421785613       -1.2709727430      -11.0327286496
 H        -9.9208910545       -2.3676056355      -11.0113804479
 H        -6.1116169099       -1.1187660878       -5.0367592279
 H        -5.0070738369       -0.3547296358       -4.1944136213
 H        -4.7867193304       -2.0570729046       -4.6902831156
 H        -3.5913985149        1.3716884326       -5.3477918511
 H        -5.1210323838        1.4122450120       -6.0768544327
 H        -3.6970651123        1.5112674472       -7.1757697211
 H         3.1295947201       -0.3670484142       -2.8193029981
 H         1.5902116440       -1.2115157181       -2.8296102830
 H         1.8374340323        0.5614158895       -3.3753262258
 H         3.7110563919       -0.9857281091       -6.5845254422
 H         4.5710836892       -0.6875786293       -5.0150025372
 H         3.4180006797        0.4141870174       -5.7505291595
 H        -0.3152427272       -5.4437438537       -4.5176909534
 H         0.6564289596       -6.8795258105       -4.5753463751
 H        -1.0500216050       -6.9802650242       -4.7818156848
 H         1.0105427257       -7.6883064505       -8.1656518432
 H         0.0419970034       -8.4738548954       -6.9023392090
 H         1.6591783430       -7.7548265812       -6.3465246843
 H        -5.8269798262       -5.2123912448      -11.6871486019
 H        -4.6230791480       -4.6407812871      -12.8910334854
 H        -4.4944820888       -4.0109922158      -11.2463188517
 H        -5.2978834014       -7.5810760414      -10.9286972801
 H        -4.0737513575       -8.3399841605      -11.8360837827
 H        -5.1115649495       -7.3124230049      -12.7680902145
 H         1.2490177092       -4.6429706055      -15.0072267091
 H         1.7009761924       -3.2601128199      -15.6894256390
 H         0.9133904558       -4.4800854609      -16.7207316399
 H         0.6954373600       -2.1972190174      -14.0303343707
 H        -0.7626090728       -2.8563856388      -13.4085853698
 H        -0.9464969912       -1.4538329278      -14.4079001073
 H        -5.6314605506       -1.4237334843      -20.2382347024
 H        -6.1512900171        0.2894985896      -19.7808177693
 H        -5.4899984928       -0.8482879949      -18.5766261373
 H        -4.8343206052        0.4492578498      -21.9982580981
 H        -3.6675269743       -0.8489429879      -21.8256403592
 H        -2.9335559118        0.8383462250      -21.8697386524
 H        -3.4673292209        6.1097080603      -17.6748450832
 H        -4.4826272586        7.2552119250      -18.7063228314
 H        -2.8690416323        7.6052313864      -18.4856002325
 H        -3.5162824331        5.9607616672      -22.0706590880
 H        -2.9799107350        7.3537218250      -21.4222545785
 H        -4.6656135319        6.7739677573      -21.1366675003
 H         0.2077542134        3.5801631417      -17.5197459415
 H         1.6880707691        3.8063083909      -16.6405833990
 H         1.0384934687        2.1675897609      -16.7284115042
 H         3.6525975606        3.9964105123      -19.6092236926
 H         3.7085912740        4.0206089084      -17.8343230604
 H         2.5073374067        5.1476129387      -18.4810239299
 Na       -0.4538407299        0.5590455963      -18.4656252880
 Na       -4.1810139150       -4.4810659708       -6.8384318222
