232

 C         4.0018094839        1.5666594179      -18.7999384073
 C         2.5312764115        1.8848466021      -18.9239881478
 O         1.7687820048        0.8745119505      -19.0765766956
 C         1.8880904775        3.3129481133      -18.8108437164
 C         0.6960290719        3.4024160797      -19.8127098063
 O        -0.1683549736        2.5259574486      -19.7990730883
 C         0.5980651840        4.4210907863      -20.9655532126
 C        -0.8125251798        5.0615494422      -21.0846488509
 C        -1.5518914404        5.5711885019      -19.9004967584
 O        -0.9089488085        5.6434579650      -18.8261336907
 C        -3.1255969888        5.8350808910      -19.8984222000
 C        -3.7934615126        4.3322975817      -20.0805794825
 O        -3.6982306526        3.6769028636      -21.0827085108
 C        -4.6186084310        3.8121148921      -18.9175202434
 C        -4.9385617746        2.2970563460      -19.0734882737
 C        -3.7245077808        1.2967263787      -18.9295845878
 O        -2.7420503840        1.5978226630      -18.2661104198
 C        -3.7942240262       -0.0082655708      -19.7647608367
 C        -2.6924249207       -1.0386067077      -19.3793233879
 O        -1.5847589502       -1.0178743754      -19.9660801208
 C        -3.0170437911       -2.1144388159      -18.2536283521
 C        -1.7473876958       -2.8649717972      -17.9279101561
 C        -0.9630879648       -2.1918895771      -16.7505695694
 O        -0.4942887953       -1.0896467068      -16.8884918332
 C        -0.6884396673       -3.0565509480      -15.5469928731
 C        -1.7609472800       -4.1331896841      -15.1183253027
 O        -2.9184974126       -3.7774113655      -15.0056266381
 C        -1.5005098674       -5.6568669627      -14.7765883270
 C        -2.7597047242       -6.2821342655      -13.9396950184
 C        -2.5069282248       -5.8657232031      -12.4538813305
 O        -1.3707246228       -5.6436063983      -12.0262288348
 C        -3.8714324733       -5.9037522204      -11.5135605733
 C        -3.6295070088       -5.8473306709       -9.9221432898
 O        -4.4797404463       -5.3449298156       -9.2214516382
 C        -2.3817773509       -6.6308377567       -9.3954253381
 C        -1.2220577384       -5.7487670817       -8.6440664313
 C        -1.1423688941       -5.9367347310       -7.1621127190
 O        -2.2048007616       -5.9554868305       -6.4967048241
 C         0.2901533172       -6.3676691888       -6.3645514871
 C         1.3318467948       -5.2442886696       -6.5525759773
 O         1.1888580543       -4.5162100706       -7.5399041986
 C         2.6033060068       -4.9947757070       -5.7181141660
 C         3.1057856353       -3.6052965834       -5.8131904582
 C         2.3411820615       -2.7692054128       -4.6651681041
 O         1.9219797710       -3.3312349168       -3.6752315998
 C         2.2945600856       -1.2106376345       -4.7890958466
 C         1.0239943627       -0.7834532873       -5.6974041736
 O         1.2389242624       -0.0145249446       -6.5855559280
 C        -0.4020762040       -1.2397401789       -5.3241512459
 C        -1.5283868194       -0.5465444240       -6.1324713126
 C        -2.8413044005       -1.3872953905       -6.1828128484
 O        -2.7735110116       -2.6115319391       -6.0298698584
 C        -4.2544790707       -0.6930180134       -6.3805269433
 C        -4.8044459748       -1.2942629323       -7.7611503556
 O        -5.0203922609       -2.4219014132       -7.8623168614
 C        -5.4346941801       -0.2575967899       -8.7575702497
 C        -6.5668459193       -0.9650009234       -9.4780720645
 C        -7.9466798327       -0.8491863451       -8.7672348623
 O        -8.0828185334       -0.0218120427       -7.9021905424
 C        -9.0678685667       -1.8420467339       -9.2033069989
 C        -9.0801590317       -3.0790137522       -8.1995971731
 O        -9.3332653259       -4.2033771391       -8.6887866546
 C        -8.7047784133       -2.7451480819       -6.6498113471
 C        -8.7051824892       -3.9161377399       -5.7479133615
 C        -7.3066317977       -4.7319723339       -5.8245353259
 O        -6.3724943121       -4.0233898453       -6.1180621076
 C        -7.2396566106       -6.2460404306       -5.4924331661
 C        -7.1542309004       -6.2981848770       -3.8397117994
 O        -7.8905698331       -7.0366054930       -3.2315895404
 C        -5.9980258701       -5.5053411864       -3.3198107240
 C        -6.1953897213       -5.1908546700       -1.7713640665
 C        -7.3393286503       -4.1147859753       -1.5771717895
 O        -7.7711545193       -3.6056370629       -2.6203950262
 C        -7.6245110302       -3.5856290824       -0.1133799012
 C        -6.7337573479       -2.2150273903       -0.1401677488
 O        -5.5226334080       -2.3071278568       -0.1019281829
 C        -7.3399025781       -0.8210404606       -0.3021595607
 C        -6.1346653514        0.0148859412       -0.9764281063
 C        -6.4162419087        1.5097795429       -1.3841834577
 O        -7.3842853365        1.8507311739       -2.0486516778
 C        -5.2829564691        2.6262297073       -1.0135953198
 C        -4.5083449502        2.7245227379       -2.3293218259
 O        -3.5269205685        2.0122011934       -2.5018273620
 C        -5.1334798762        3.5175194053       -3.5398576682
 C        -6.0818658871        3.8678195861       -0.5583855293
 C        -4.2259590271        2.2297027425        0.2483256254
 C        -9.1739306280       -3.1733740506        0.0327893517
 C        -7.2435419514       -4.3516753258        1.1519673072
 C        -8.5002976953       -7.0739668681       -5.9739776907
 C        -5.9308246687       -6.8710565884       -6.1840880447
 C       -10.5027070126       -1.3149126565       -9.0046922363
 C        -8.9256446433       -2.4385891758      -10.6515475881
 C        -5.2344719394       -1.2216508562       -5.2565005271
 C        -4.2158218956        0.8511400790       -6.2676829573
 C         2.1488511360       -0.5270923223       -3.4034755751
 C         3.5307471068       -0.6616505685       -5.4892489563
 C        -0.0294959440       -6.5930070675       -4.8967749338
 C         0.6898812525       -7.6872980442       -6.9412241618
 C        -4.7707137857       -4.6585250202      -11.8166326605
 C        -4.5787225374       -7.2236980158      -11.8399734280
 C         0.5090766027       -3.8252799499      -16.0936440663
 C        -0.2882541112       -2.1821621926      -14.3298823141
 C        -5.1760239803       -0.6244741893      -19.4618311271
 C        -3.5630739527        0.4075762658      -21.2005937712
 C        -3.3286966927        6.5738106202      -18.5253999400
 C        -3.6106398583        6.7486613945      -21.1261938967
 C         1.2693189901        3.4361279936      -17.3568720578
 C         2.8846144187        4.4671430337      -19.0703324739
 H         4.1405797388        0.6362871897      -18.2045341309
 H         4.4385591885        2.3991394268      -18.2901313862
 H         4.4333885648        1.4406070025      -19.7966745581
 H         0.6755359048        3.9633091654      -22.0002701035
 H         1.3903771250        5.1969536860      -20.9729412768
 H        -1.4309243753        4.3964075487      -21.6898838132
 H        -0.6426713744        5.9172015840      -21.8185510498
 H        -5.6074057167        4.2507540643      -18.9372912923
 H        -4.1988119876        4.0543880189      -17.9668396829
 H        -5.4345699397        2.1117553902      -20.0334375427
 H        -5.8155695783        2.1055995487      -18.4580016886
 H        -3.6350295499       -2.8810037096      -18.6574279401
 H        -3.5637660331       -1.7779334596      -17.3543800832
 H        -1.0482328860       -2.7969791016      -18.7942294883
 H        -1.8458531675       -3.9541229568      -17.7127803894
 H        -0.6025245868       -5.6650039187      -14.1048786184
 H        -1.1912246361       -6.3151941675      -15.6139776279
 H        -2.5842775165       -7.3943594793      -13.9860608935
 H        -3.6773072854       -6.0132854913      -14.5602876099
 H        -1.8049893370       -7.1941242169      -10.1330175987
 H        -2.8354180585       -7.3141196931       -8.6399421066
 H        -1.4013039159       -4.6675771573       -8.6460452052
 H        -0.2823011473       -6.0423261922       -9.0419129207
 H         3.3100938952       -5.7429891194       -6.1407096476
 H         2.4474121696       -5.3175183005       -4.7123155599
 H         2.7936033591       -3.0912007814       -6.7266538002
 H         4.1999019784       -3.5286057151       -5.6643905169
 H        -0.4449736901       -0.9353213991       -4.3566162729
 H        -0.3812443782       -2.3474872073       -5.4131751360
 H        -1.1785353001       -0.4139523273       -7.2130812758
 H        -1.7873281902        0.3774741021       -5.6535461535
 H        -4.7747796729        0.2673683296       -9.4853928252
 H        -5.8925355734        0.5536867524       -8.1138779281
 H        -6.4644221922       -2.0621626254       -9.4859248196
 H        -6.7371885019       -0.8075511536      -10.5186751701
 H        -9.4827226847       -1.9917886195       -6.3121122952
 H        -7.7452643957       -2.1070671841       -6.5794846602
 H        -9.5472278629       -4.6244890591       -5.9067701821
 H        -8.7680913781       -3.6389924976       -4.7115597158
 H        -5.9924976889       -4.5096298745       -3.8731908698
 H        -4.9614961204       -5.8688964144       -3.6139589819
 H        -5.3215036270       -4.8048446076       -1.2796367699
 H        -6.4033615907       -6.1791771133       -1.2933612438
 H        -7.4801740936       -0.5172154688        0.7374864270
 H        -8.3061548522       -0.6165337690       -0.7981254639
 H        -6.0343205234       -0.5212819985       -1.9484053231
 H        -5.1845362196       -0.1605079303       -0.5625046103
 H        -5.1493555181        4.5825016800       -3.3542113551
 H        -6.1248653085        3.1413401977       -3.4391875057
 H        -4.6977939903        3.1786934402       -4.4660204252
 H        -5.2918680650        4.6878490030       -0.2973169226
 H        -6.5772039533        3.7131089738        0.4246349922
 H        -6.8485614077        4.1365590136       -1.3138733010
 H        -4.7005756631        1.5121320946        0.8612981646
 H        -4.0134390561        3.0392502799        0.8963143612
 H        -3.4609531777        1.6111284070       -0.2281865774
 H        -9.6929945192       -3.9859436643       -0.4526605463
 H        -9.2647303890       -2.1957200295       -0.5542400813
 H        -9.3947481511       -2.9524859881        1.0914208615
 H        -7.7874413343       -3.7314963257        1.9378345049
 H        -6.1965681569       -4.3340823859        1.3828648330
 H        -7.5597444352       -5.4077913040        1.2610999940
 H        -9.3337510977       -6.7209832168       -5.4780297560
 H        -8.3068322920       -8.1088967628       -5.6240926663
 H        -8.6074520720       -7.0318258563       -7.0805329618
 H        -6.0092862450       -6.9557055497       -7.2810077038
 H        -5.7740891328       -7.8935064844       -5.7793496564
 H        -5.0291391178       -6.3899808611       -5.9269244861
 H       -11.2809938218       -1.9521372817       -9.2693897268
 H       -10.6571577174       -0.4788277811       -9.7224012949
 H       -10.6248044944       -1.0020241750       -7.9610670832
 H        -7.9001310276       -2.7347802561      -10.7822991668
 H        -9.2710012304       -1.7274402443      -11.3765707059
 H        -9.4606386654       -3.4113323954      -10.6328825855
 H        -6.1975765684       -0.7004111221       -5.2161545965
 H        -4.9638302956       -0.9934031617       -4.2030311353
 H        -5.4364145290       -2.3701135432       -5.3318867022
 H        -3.9252172647        1.0682614577       -5.2172489050
 H        -5.2297538976        1.3330531507       -6.4793714089
 H        -3.4545612693        1.2705068010       -6.9143443157
 H         3.0810324136       -0.5250442785       -2.8132409171
 H         1.3548977905       -1.0484557914       -2.7491411322
 H         2.1130554951        0.5027112559       -3.5619289195
 H         3.4079075796       -0.9568979123       -6.5689822652
 H         4.4405026957       -1.0350270777       -5.0987650501
 H         3.6166100452        0.5158541328       -5.4407385644
 H        -0.2743569035       -5.6891934950       -4.3348394177
 H         0.8236193499       -7.0647102544       -4.3647015837
 H        -0.8323745599       -7.2345204135       -4.7644968144
 H         0.6397463161       -7.6727442681       -8.0197289236
 H        -0.0902719924       -8.4150012793       -6.6195677744
 H         1.6129029440       -7.9420211052       -6.5835217066
 H        -5.5124094259       -4.5162661483      -11.1109150119
 H        -5.2321711865       -4.6909400536      -12.8120572459
 H        -4.0692853992       -3.7932462677      -11.8149985331
 H        -5.5456935269       -7.3128477710      -11.2654666302
 H        -4.0226234040       -8.1404113017      -11.4944213132
 H        -4.6739955447       -7.2003037213      -12.9423553809
 H         1.0370842247       -4.3334306797      -15.3262675761
 H         1.3058863073       -3.1774274738      -16.4306654951
 H         0.1094868177       -4.5582269614      -16.9060369864
 H         0.8196918811       -2.0362185766      -14.3194554060
 H        -0.6616806040       -2.6596178412      -13.3853841334
 H        -0.7858850423       -1.1704422381      -14.4998386857
 H        -5.0945627608       -1.6601468285      -19.7911502262
 H        -5.9866937112       -0.2753059861      -19.9554460186
 H        -5.4305131980       -0.6701222792      -18.3850213062
 H        -4.2359550760        1.1388220965      -21.5525374324
 H        -3.6719096407       -0.4481442391      -21.9299227230
 H        -2.6104283346        0.8835965597      -21.2037320889
 H        -2.7274870149        6.1072760873      -17.7434820001
 H        -4.3689654790        6.7454478267      -18.2041721664
 H        -3.0659370274        7.5933992281      -18.5930280565
 H        -3.1900784987        6.3476239773      -22.1072552570
 H        -3.1310570316        7.7734850287      -21.0816229985
 H        -4.6913872024        6.6735785650      -21.2197952692
 H         0.2030222032        3.1512086782      -17.2876627252
 H         1.3565349227        4.3921652339      -16.8587812171
 H         1.8318175711        2.7735069812      -16.7493524339
 H         3.1851537164        4.4224578030      -20.0711852572
 H         3.8169477402        4.3526824504      -18.5575295650
 H         2.4092440989        5.3364202160      -18.6426511258
 Na       -0.5915233954        0.6200613965      -18.6300900006
 Na       -4.2109618450       -4.4303647616       -7.0377425631
