232

 C         3.8596649194        1.8873852892      -18.6248851364
 C         2.2895850872        2.0142024890      -19.1189110284
 O         1.6801558816        1.0052046803      -19.2357129995
 C         1.8008678413        3.4296605110      -19.0612175661
 C         0.5145067723        3.5459026359      -19.9420847216
 O        -0.4655029819        2.8294432696      -19.7654903813
 C         0.4030247818        4.6276419116      -21.0033978022
 C        -1.1156360840        4.8789558280      -21.1715634362
 C        -1.6072033809        5.3116408347      -19.7814852666
 O        -0.7942555100        5.5647521076      -18.9577820854
 C        -3.0642887919        5.6302412005      -19.7904213677
 C        -3.7020169937        4.2361958203      -19.9749342019
 O        -3.6746350565        3.7760588830      -21.1284676732
 C        -4.6217754729        3.7577080463      -18.8847274305
 C        -5.0220502035        2.2831688414      -18.9875968482
 C        -3.8350815739        1.3738359396      -18.8186099878
 O        -2.8052236948        1.7146928900      -18.3066957409
 C        -3.7595607293        0.0152758981      -19.6955078621
 C        -2.6378505103       -1.0103536227      -19.4093244546
 O        -1.5679000457       -0.8214266127      -19.8596549585
 C        -2.9739320647       -2.3732540874      -18.6915300176
 C        -1.6209869346       -2.9326423923      -17.9656492821
 C        -1.1305981815       -2.2182055688      -16.7230179946
 O        -1.0223654649       -0.9964238562      -16.6767130093
 C        -0.6732223843       -3.1446947025      -15.6021371374
 C        -1.8330331325       -4.0190302547      -15.1115519639
 O        -2.9711355137       -3.6024948127      -15.0844443666
 C        -1.4480358836       -5.3563529797      -14.6250372552
 C        -2.4567149764       -6.2343518324      -13.8442233644
 C        -2.4104862885       -5.7980967638      -12.2885332556
 O        -1.4156113480       -5.4897345345      -11.7000783585
 C        -3.8281257693       -5.7947442522      -11.5561018994
 C        -3.5818365529       -5.7458051403       -9.9841523639
 O        -4.5336588005       -5.3581027175       -9.3285170838
 C        -2.4095706733       -6.4649125809       -9.1690275493
 C        -1.3147637738       -5.5917770028       -8.5061040979
 C        -1.1496189852       -6.0216232247       -6.9709402773
 O        -2.1217837579       -5.8809670624       -6.3325416040
 C         0.2581315223       -6.3697841901       -6.3782782655
 C         1.2692399149       -5.2268240812       -6.5828335780
 O         1.0853124229       -4.4158497310       -7.4442412904
 C         2.5538410930       -5.1951949572       -5.6980417691
 C         3.0941465367       -3.7524546453       -5.6612775047
 C         2.2432194415       -2.8359199060       -4.6746918873
 O         1.6658956901       -3.2545259160       -3.6970363954
 C         2.2158748721       -1.2745895555       -4.8317841679
 C         1.0241382240       -0.7843202848       -5.7534307204
 O         1.1235037311        0.0244692905       -6.6472477007
 C        -0.4184701918       -1.4128564678       -5.3490504509
 C        -1.4598725877       -0.7648221266       -6.2311396132
 C        -2.8611184255       -1.6229667339       -6.1439612695
 O        -2.7676657245       -2.7922397420       -6.0743370155
 C        -4.3073744327       -0.8642963856       -6.3646108465
 C        -4.8682715418       -1.3201463676       -7.8323944465
 O        -4.8213052584       -2.5185071530       -8.1864089248
 C        -5.6300272938       -0.2715917633       -8.6900425776
 C        -6.6653016774       -0.8633193013       -9.6639284549
 C        -8.1040798776       -0.8928865623       -9.0106136269
 O        -8.3186650737       -0.0646226092       -8.1278931405
 C        -9.1511121281       -1.9730277002       -9.2745556245
 C        -9.0265497951       -3.1219213816       -8.0953600201
 O        -9.2323049409       -4.2624932202       -8.4018995483
 C        -8.6001604650       -2.7051330753       -6.6666531053
 C        -8.5902412224       -4.0024949715       -5.8058919337
 C        -7.3484945679       -4.7672864339       -5.9251629564
 O        -6.2983923479       -4.2130782624       -6.2866760547
 C        -7.3151455242       -6.1855006238       -5.4880634247
 C        -7.0463008666       -6.2274052010       -3.8236764338
 O        -7.7189130372       -7.0417324569       -3.2308115233
 C        -5.8121251967       -5.4913591185       -3.0358092210
 C        -6.2795973828       -5.1855725737       -1.6074776413
 C        -7.2465566414       -4.0321867351       -1.5189303365
 O        -7.7305954085       -3.3652882076       -2.4355260808
 C        -7.5644959159       -3.4702781326       -0.0902190204
 C        -6.5751286894       -2.2694742129       -0.1989789549
 O        -5.3748405627       -2.4823003725       -0.1611180152
 C        -7.0622468106       -0.8937572814       -0.4885595799
 C        -5.9726979538        0.0125816429       -0.9901102276
 C        -6.3054607256        1.4863833080       -1.3105996931
 O        -7.2563437158        1.8293877423       -1.9452841609
 C        -5.1996019064        2.5937551213       -0.9259130210
 C        -4.3822583175        2.7188624668       -2.1963716368
 O        -3.3218358477        2.1349439542       -2.2912483110
 C        -5.0507703283        3.4820819582       -3.4460906792
 C        -5.9665552194        3.9624452030       -0.5766732970
 C        -4.3427339212        2.1286875796        0.2432817854
 C        -9.0963049753       -3.0889072243       -0.0060182807
 C        -7.1684847533       -4.4595202895        1.0684688593
 C        -8.5656848162       -7.0509772802       -5.7585416546
 C        -6.0533676669       -6.9249671209       -6.1157628254
 C       -10.5568488399       -1.1402416340       -9.1672517937
 C        -9.0164799887       -2.5996614876      -10.7297967861
 C        -5.2358073748       -1.3149608997       -5.2155860870
 C        -4.0383069160        0.6715707835       -6.3558008329
 C         2.0233550624       -0.6739897817       -3.3989234643
 C         3.5411218338       -0.7516290390       -5.4261184230
 C        -0.0473983736       -6.5511607865       -4.9021071407
 C         0.8096120236       -7.7185971634       -6.9442663643
 C        -4.5933020438       -4.5448598873      -12.0883401308
 C        -4.6974478013       -7.1058887443      -11.7019868819
 C         0.4999002967       -3.9517745484      -15.9555820580
 C        -0.1705803950       -2.3210064776      -14.3805989818
 C        -5.2139866549       -0.5872305401      -19.7373018563
 C        -3.5619978745        0.4848954740      -21.1669952998
 C        -3.6945163408        6.3062615339      -18.5235550950
 C        -3.2716031956        6.6200193811      -20.9495782123
 C         1.3614837650        3.6545414652      -17.5139323331
 C         2.8798000604        4.4977648933      -19.3956342693
 H         4.0432023490        0.8699144907      -18.2729578294
 H         4.0130319080        2.6492850930      -17.8500148369
 H         4.5480342334        2.0541989961      -19.4866744472
 H         0.8797960999        4.1579911870      -21.8161912614
 H         0.8938396013        5.5784538066      -20.8754908070
 H        -1.5688918304        3.9408856767      -21.4656557387
 H        -1.2668225449        5.5338199893      -22.0155719744
 H        -5.5400114197        4.3390918931      -19.0883300684
 H        -4.2930106913        4.0975271748      -17.8944510854
 H        -5.6524744391        2.1215021108      -19.8486619810
 H        -5.7777599950        1.9652011052      -18.2524760265
 H        -3.2437443905       -3.2168158707      -19.3730570335
 H        -3.7744141104       -2.3744094633      -17.9906075436
 H        -0.8007929398       -2.6903228867      -18.6269963087
 H        -1.5331588365       -4.0009921854      -17.7655720942
 H        -0.6724820049       -5.2142361297      -13.8668396335
 H        -0.9696729420       -5.9415516448      -15.4245136280
 H        -2.2035747110       -7.2046295320      -14.0812990427
 H        -3.4177156288       -6.0155196099      -14.2158376513
 H        -1.8159868320       -7.1021125698       -9.8725187688
 H        -2.8752854477       -7.1082273656       -8.4033342821
 H        -1.6570920427       -4.5698565303       -8.2981499047
 H        -0.2856816683       -5.7235790053       -8.9332496815
 H         3.2789641810       -5.9047962660       -6.1086092485
 H         2.2764617797       -5.5735863322       -4.7175905031
 H         3.2333725504       -3.2334538675       -6.6307664687
 H         4.0637060435       -3.8381492141       -5.1356773203
 H        -0.5127843215       -1.0657950404       -4.2476122843
 H        -0.4086185515       -2.4677958130       -5.5136329067
 H        -1.1254532691       -0.7950815064       -7.2392181306
 H        -1.6575929116        0.2345339836       -5.8328432887
 H        -5.0201846508        0.3084808483       -9.3224481533
 H        -6.0975885536        0.4256752817       -7.9684649137
 H        -6.4494315935       -1.8360857256      -10.1031744363
 H        -6.9009648357       -0.2745529658      -10.6052599984
 H        -9.2686715019       -1.9598220017       -6.2779079251
 H        -7.7151809914       -2.1535961447       -6.8112159192
 H        -9.3319352676       -4.7081576785       -6.2112981619
 H        -8.9210510062       -3.8767454780       -4.7274900560
 H        -5.4146104215       -4.6017618946       -3.4365882044
 H        -4.9664214269       -6.1249020883       -2.9578484496
 H        -5.3502606854       -4.9967032902       -1.0072297911
 H        -6.7313954428       -6.0631542693       -1.1815708757
 H        -7.6993759055       -0.3314303595        0.2121689877
 H        -7.7421877892       -1.1078818884       -1.3086545112
 H        -5.5580260656       -0.4953234494       -1.8545676396
 H        -5.1257480552        0.0401557167       -0.2281113433
 H        -5.3352378395        4.4117876176       -2.9785376418
 H        -5.9831514361        2.9415787290       -3.7331049563
 H        -4.3064977466        3.5635145587       -4.2571451411
 H        -5.2924671838        4.8073524061       -0.4768048219
 H        -6.4096569059        3.8902362074        0.4400444064
 H        -6.7161335611        4.1328014481       -1.3852698844
 H        -4.8848730069        1.7968104342        1.1853673574
 H        -3.9082497020        3.0991808874        0.6053850273
 H        -3.6523956741        1.3778495157       -0.1019914635
 H        -9.6421105143       -4.0594695395        0.1816658537
 H        -9.3073422076       -2.5554924461       -0.8289734317
 H        -9.0991999366       -2.4305001182        0.8097446686
 H        -6.7362727130       -4.0711752535        1.9502382245
 H        -6.4490865869       -5.1687664581        0.5646230808
 H        -8.0014611506       -5.1024817599        1.4284805061
 H        -9.4114040019       -6.7228102687       -5.0555703680
 H        -8.3637107199       -8.1018025461       -5.6939187520
 H        -8.7802368738       -6.7757297869       -6.7801134826
 H        -6.2774112935       -6.8245188164       -7.1545103778
 H        -5.8140222354       -7.9221198681       -5.7860975297
 H        -5.1009001668       -6.3885560828       -5.9839524552
 H       -11.4471621252       -1.7994382931       -9.1503796692
 H       -10.7821549810       -0.6109429726      -10.0391448406
 H       -10.5232571708       -0.5653734294       -8.2915447584
 H        -7.9691920595       -2.6695737896      -10.9803779013
 H        -9.3772773136       -1.8042204892      -11.4310545968
 H        -9.4403923247       -3.5532197335      -10.8319444989
 H        -6.1485484152       -0.7315718269       -5.0701863879
 H        -4.7884921016       -1.2570055584       -4.2610579641
 H        -5.4349637002       -2.3101733417       -5.2497298805
 H        -3.3717226729        1.0198170112       -5.5406390405
 H        -4.9304096521        1.1884390176       -6.4417119264
 H        -3.4687051931        0.7975722588       -7.2846420404
 H         2.7761072275       -1.0178380430       -2.7776575265
 H         1.1510945701       -1.0042472081       -2.9502827244
 H         2.2129215373        0.3992596804       -3.4020385094
 H         3.7706030337       -1.0759130705       -6.3833496875
 H         4.3216282109       -1.0054982726       -4.6738491891
 H         3.5707680220        0.2817362689       -5.3399713577
 H        -0.4663545061       -5.6468265113       -4.4847742351
 H         0.7614360801       -6.8128151794       -4.2520967050
 H        -0.8672292458       -7.3583718392       -4.7696074259
 H         1.2233861936       -7.5001511460       -7.9685723032
 H         0.0376891323       -8.4403705149       -6.9899322951
 H         1.7324690707       -8.1115145713       -6.3294002483
 H        -5.2445695048       -4.1304642022      -11.2552940488
 H        -5.2217235549       -4.8877723581      -12.8630524189
 H        -4.0161938717       -3.7757542143      -12.4900896929
 H        -5.5754059813       -7.0582242707      -11.1062411998
 H        -4.1210172293       -7.8684954771      -11.2359529535
 H        -4.9871745194       -7.2544812060      -12.7326450219
 H         0.9412171614       -4.4793611084      -15.0700775575
 H         1.3419332758       -3.4338225526      -16.4598638087
 H         0.1564572122       -4.6554171418      -16.6418680260
 H         0.6314827208       -1.6713902759      -14.7519619345
 H         0.1050884185       -3.0969245651      -13.6784238559
 H        -0.8915725488       -1.6784457425      -13.9599823351
 H        -5.4765377612       -1.4725830359      -20.2998013641
 H        -5.9263082437        0.1456313952      -20.2703425681
 H        -5.6309456159       -0.6906249428      -18.7658190315
 H        -3.9388887931        1.4249256998      -21.4798856618
 H        -4.0813277225       -0.2155836895      -21.8200918477
 H        -2.4916740181        0.6957994489      -21.2761209166
 H        -3.4241194432        5.7381474210      -17.7083336335
 H        -4.7120192451        6.3822300135      -18.6529398211
 H        -3.4396226415        7.3679890466      -18.2301969159
 H        -3.1180093340        6.0942998676      -21.8621140361
 H        -2.5899881367        7.4574072799      -20.9409686744
 H        -4.3423700955        6.9105438684      -20.9860023367
 H         0.9925924971        2.7848565739      -17.0045890415
 H         0.4896920781        4.3137689634      -17.4754409363
 H         2.1757796057        4.0550561036      -16.9221967982
 H         3.5909370955        4.0445753019      -20.0974668747
 H         3.5024665082        4.6541721257      -18.5106794797
 H         2.5337727777        5.5013039800      -19.6100088293
 Na       -0.5507461357        0.5994604511      -18.6380459689
 Na       -3.9316974259       -4.4549275994       -7.0980108911
