232

 C         3.8787431781        1.8828781625      -18.6332317866
 C         2.4203526028        2.0812508979      -19.0085805489
 O         1.6646904140        1.1795984051      -19.0644386977
 C         1.8010843176        3.5924099261      -19.1530629044
 C         0.4827914318        3.5043989106      -19.9462625231
 O        -0.4184291075        2.7569201179      -19.6982632878
 C         0.3180557561        4.3506783201      -21.2117803886
 C        -1.1081932698        5.0803230947      -21.4222635279
 C        -1.8052692934        5.4352038969      -20.0031118003
 O        -1.1440706900        5.5359031759      -19.0125076430
 C        -3.3510947975        5.7442739774      -19.7819669347
 C        -4.0022374896        4.3084111479      -19.7846988303
 O        -4.1281690193        3.7422082995      -20.8633697241
 C        -4.6024505324        3.5929270847      -18.5586910973
 C        -5.0114457380        2.1736291230      -18.9275577025
 C        -3.8517433145        1.2024089657      -19.0248371604
 O        -2.8994473009        1.4000534371      -18.3512307622
 C        -3.8186464584       -0.1007353157      -20.0716887357
 C        -2.5544884960       -0.9654272664      -19.5485601416
 O        -1.3933185127       -0.6768632297      -19.7228402673
 C        -2.9165479389       -2.2529184884      -18.8286920461
 C        -1.6877002758       -2.9417101078      -18.1569332698
 C        -1.3839474244       -2.1893726999      -16.8506405653
 O        -1.5572505554       -0.9663425940      -16.7225569550
 C        -0.6755909662       -2.9731543901      -15.6595109183
 C        -1.7181925584       -4.0852531821      -15.1355704546
 O        -2.8787258158       -3.7505868677      -15.0492843362
 C        -1.0856223171       -5.3418107765      -14.4295968693
 C        -2.2934713884       -5.9718956386      -13.6596104057
 C        -2.3600614916       -5.5845563205      -12.2108836419
 O        -1.3790679950       -5.4145501134      -11.5473693161
 C        -3.7658372841       -5.6632550038      -11.3530153965
 C        -3.4542423094       -5.6786048643       -9.8732808104
 O        -4.0621280445       -4.8249296706       -9.2632161767
 C        -2.5928080150       -6.5709328856       -8.9857374021
 C        -1.5033851066       -5.6153768544       -8.5166932628
 C        -1.3264108256       -5.7959788159       -6.8693112295
 O        -2.3296485302       -5.8483924115       -6.1960073786
 C         0.0065279757       -6.2227540187       -6.3358580829
 C         1.0744237576       -5.0545979978       -6.5115080938
 O         0.8794007421       -4.1631959837       -7.2644651441
 C         2.4468111698       -5.1611469966       -5.7322782266
 C         2.9869373978       -3.7474924576       -5.5005620268
 C         2.0234464255       -2.8925338776       -4.6121835839
 O         1.1253107823       -3.4777014765       -4.0634421938
 C         2.0832707378       -1.3956487380       -4.7441480803
 C         0.9500532773       -1.0582683538       -5.7421328812
 O         1.1327234368       -0.1971515931       -6.6005436075
 C        -0.4086045233       -1.8822036743       -5.5976443821
 C        -1.4040231441       -1.0179242235       -6.3388788091
 C        -2.7653857832       -1.6604667524       -6.2855046616
 O        -2.7491617593       -2.8970968305       -6.2858862235
 C        -4.1002623747       -0.9438438831       -6.4696753418
 C        -4.6461813608       -1.3065626798       -8.0102908859
 O        -4.3780326943       -2.4110509322       -8.4573652410
 C        -5.7474157673       -0.3686469467       -8.5741040235
 C        -6.7130307144       -1.0671004444       -9.5012920117
 C        -8.1853306504       -0.9088085240       -9.0201101879
 O        -8.5051018344        0.0738681672       -8.3740460478
 C        -9.1806378493       -2.0554044926       -9.2772902497
 C        -8.9655557781       -3.2673891862       -8.1448483869
 O        -9.1142228255       -4.3959637685       -8.4233200350
 C        -8.5787090851       -2.8378959263       -6.7253872661
 C        -8.3697991878       -3.8355213422       -5.6044765671
 C        -7.2421355372       -4.8085775504       -5.8946578934
 O        -6.2204951946       -4.4003248932       -6.4850323515
 C        -7.2423162287       -6.2326957553       -5.3578052967
 C        -7.0055296648       -6.2843351669       -3.7843243361
 O        -7.6373471207       -7.0629568470       -3.1086892226
 C        -5.8949666475       -5.4193982901       -3.1653689692
 C        -6.1261642890       -5.0785392947       -1.6870076099
 C        -7.2203815662       -4.1292551928       -1.5670044798
 O        -7.8254128973       -3.7632567138       -2.5661654330
 C        -7.4787362373       -3.3961086845       -0.1442387328
 C        -6.2716090163       -2.3047297140       -0.2580658398
 O        -5.2175398551       -2.6012271204        0.2783011044
 C        -6.6207048385       -1.0319328897       -0.9806959798
 C        -5.4605302783        0.0424646323       -1.0496297401
 C        -6.0222687855        1.3884010634       -1.1773288057
 O        -7.1816075422        1.6678136290       -1.4556486994
 C        -5.0440726574        2.6659383997       -0.8262073926
 C        -4.1249433759        2.8090322846       -2.0887773910
 O        -3.0531235410        2.2484932897       -2.0681201079
 C        -4.7371684706        3.5726250764       -3.3287462009
 C        -6.0459910337        3.8561590310       -0.6383104828
 C        -4.1706647011        2.4502375187        0.4307036634
 C        -8.8651197421       -2.7130481038       -0.0100870038
 C        -7.1146535049       -4.3836366060        1.0362134946
 C        -8.6804050574       -6.8520167176       -5.7943854984
 C        -6.0981811905       -7.0869516814       -5.9559575043
 C       -10.6583310947       -1.6154074055       -9.0994027342
 C        -8.9578612298       -2.6505827882      -10.7358904814
 C        -5.0519841198       -1.4900286954       -5.4804773210
 C        -3.9616706045        0.6037652558       -6.4306812633
 C         1.8543938072       -0.6644179633       -3.3571259089
 C         3.3868158884       -0.9197482534       -5.3859458818
 C        -0.1268711862       -6.7462494297       -4.8890805044
 C         0.5585135976       -7.4233322166       -7.2077744689
 C        -4.5690943738       -4.4719154841      -11.7168698559
 C        -4.4942926685       -7.0474059239      -11.5737514620
 C         0.5151528865       -3.7008849805      -16.3188253651
 C        -0.1139399104       -2.0362460048      -14.6418063936
 C        -5.0893186038       -0.8650611579      -20.0120069867
 C        -3.6188732763        0.3932443551      -21.5328079334
 C        -3.4619190641        6.4115022994      -18.4037872634
 C        -4.1131443922        6.5651717017      -20.8787249806
 C         1.4608014305        3.9964082483      -17.6842916919
 C         2.8964624332        4.5894095799      -19.7289255222
 H         4.0108595289        0.9228319238      -19.0448359539
 H         3.9494294146        1.9341067464      -17.5194776740
 H         4.5960048544        2.4711082415      -19.1606168345
 H         0.5502588131        3.7139529562      -22.1091768202
 H         1.1249445689        5.1085697978      -21.2685515370
 H        -1.6404167329        4.2736960899      -21.9973621345
 H        -1.0229211484        5.9238504083      -22.0120265252
 H        -5.3864839380        4.2110155015      -18.2128329676
 H        -3.9151907141        3.5011982266      -17.7074019908
 H        -5.4916347637        2.1129328600      -19.9165103852
 H        -5.7998398059        1.7038961633      -18.3253688322
 H        -3.5205706072       -2.9468148319      -19.3530867953
 H        -3.5610060605       -1.9870945239      -17.9588716954
 H        -0.8236095280       -2.6980470308      -18.8740425036
 H        -1.6802461742       -4.0023295031      -17.9794491122
 H        -0.3765703660       -5.0580012562      -13.6136207456
 H        -0.6211005981       -6.0085618212      -15.1709613065
 H        -2.2457027506       -7.1140028369      -13.6294125259
 H        -3.2115544053       -5.6712756996      -14.1779686675
 H        -2.1590955309       -7.4588571027       -9.4215447091
 H        -3.1922124810       -7.0138602663       -8.1545955025
 H        -1.8645139772       -4.6111218695       -8.7177524615
 H        -0.5269877273       -5.8423566635       -8.9431508221
 H         3.0813218722       -5.7515529161       -6.2861574245
 H         2.1773163634       -5.7123533223       -4.8291514545
 H         3.2148327555       -3.1996443159       -6.4474493659
 H         3.9564121929       -3.8781348220       -4.9744424172
 H        -0.7815170293       -2.0663306399       -4.5704168565
 H        -0.2635092548       -2.7352349793       -6.1370104598
 H        -1.2350555887       -0.8966640551       -7.4010605878
 H        -1.5397432456       -0.0574872890       -5.7323179166
 H        -5.3533669679        0.5298019627       -9.1654020831
 H        -6.1841378305        0.0163550093       -7.7308508210
 H        -6.6033673108       -2.1863037299       -9.6163328390
 H        -6.7701538839       -0.7078266787      -10.5192192742
 H        -9.2231206854       -1.9533636756       -6.3543854520
 H        -7.5825816296       -2.3415745388       -7.0221546983
 H        -9.2136231648       -4.4901920706       -5.4077562974
 H        -8.1912555579       -3.3441882596       -4.6109377764
 H        -5.7032370369       -4.4381659534       -3.6862032701
 H        -4.9415932254       -6.0865960900       -3.2012711052
 H        -5.1901415185       -4.7044528330       -1.2336431787
 H        -6.3624097876       -6.0041425685       -1.1735807814
 H        -7.4586839999       -0.5955253469       -0.4182887069
 H        -7.1104335150       -1.2505772595       -1.9393980915
 H        -4.9053172253       -0.2348247149       -1.9140464075
 H        -4.8155465447        0.0188041776       -0.1538464359
 H        -4.6913430139        4.6405687459       -3.1338443703
 H        -5.7601534325        3.2320441462       -3.3720705245
 H        -4.1529084101        3.2813502965       -4.1614584264
 H        -5.6731803719        4.8637446501       -0.6622183649
 H        -6.5336392014        3.6260561307        0.3578259456
 H        -6.6636482260        3.8520115894       -1.5757441026
 H        -4.9208839048        2.7326461832        1.1950324290
 H        -3.2898415772        3.0765286200        0.5300103730
 H        -3.8383731517        1.4455558917        0.5800014014
 H        -9.5403178594       -3.5738231903        0.2893353793
 H        -9.0454911577       -2.2325351117       -0.9586272792
 H        -8.8034138259       -1.9935778300        0.8767855955
 H        -7.3916991347       -4.1078305481        2.0297784038
 H        -6.0049782972       -4.6019037897        1.0113422500
 H        -7.6709528095       -5.3029734366        0.9298449732
 H        -9.5115621395       -6.2936403371       -5.2618420829
 H        -8.6219162418       -7.8451119568       -5.4146674001
 H        -8.7541283889       -6.8445239149       -6.8353691863
 H        -5.9169860649       -6.9580539802       -6.9922681162
 H        -6.2836621327       -8.0968278469       -5.6509125426
 H        -5.1157235949       -6.8833111594       -5.4094500386
 H       -11.3873792031       -2.4762028036       -9.3190633112
 H       -10.9278553651       -0.8632367960       -9.8421895941
 H       -10.8299706081       -1.1493384599       -8.1208540850
 H        -8.1566330157       -3.4419451144      -10.8813470820
 H        -8.7835287663       -1.9070652552      -11.5083733928
 H        -9.9109297432       -3.0662770118      -10.8737004186
 H        -6.0885883865       -1.1518945362       -5.7851906627
 H        -4.8661013536       -1.2186816006       -4.3752351136
 H        -5.0182989824       -2.5375679663       -5.2790683592
 H        -3.4650967519        0.8425079257       -5.5147787140
 H        -4.9166125573        1.0679906762       -6.5943198805
 H        -3.2065645926        0.8350438841       -7.2432332868
 H         2.7396556438       -0.6336737133       -2.6794276736
 H         1.0694062766       -1.1492675188       -2.8279649465
 H         1.5010733068        0.4270018191       -3.5948959871
 H         3.5084862088       -1.4226072023       -6.3700050400
 H         4.2788423087       -1.0315731749       -4.6482591997
 H         3.3211320658        0.1095528378       -5.5250419576
 H        -0.0717246610       -5.9799562839       -4.1360120116
 H         0.5818874131       -7.4698263676       -4.6128375054
 H        -1.1178099114       -7.2286566970       -4.8173763435
 H         0.6732390947       -7.1214031838       -8.1949770717
 H         0.0392135137       -8.3086896110       -7.0496958210
 H         1.6124747301       -7.6444659115       -6.8728249332
 H        -5.5933474242       -4.5006292170      -11.2426428590
 H        -4.5977999645       -4.3549448548      -12.7941566744
 H        -4.1092895377       -3.5902159784      -11.3282871273
 H        -5.5239201589       -7.1451096120      -11.1953746124
 H        -3.7830391269       -7.7077737549      -11.0623251676
 H        -4.6924415579       -7.2095006310      -12.6613644692
 H         0.9446382875       -4.4067484475      -15.5485845178
 H         1.2470372638       -2.9493171460      -16.6849154466
 H         0.4047026924       -4.2444011650      -17.2010624385
 H        -0.0179655283       -1.1057745542      -15.2406661042
 H         0.7169838225       -2.5571980403      -14.1705177781
 H        -0.7732553347       -1.7069160164      -13.8378526996
 H        -5.0899501309       -1.7049503268      -20.6615156807
 H        -5.9663305055       -0.3654082013      -20.4910386224
 H        -5.3610595348       -1.1823808769      -19.0766276380
 H        -4.5646881366        0.9106736100      -21.7999593582
 H        -3.5855139189       -0.3487030146      -22.2588496483
 H        -2.9543085379        1.2181334733      -21.6273529714
 H        -2.9609233581        5.8404126213      -17.6353843375
 H        -4.4713907336        6.6712723361      -18.1437217261
 H        -2.8851554820        7.3778384287      -18.4034069824
 H        -4.6125414339        5.9726445251      -21.6725674721
 H        -3.5120315214        7.3745425932      -21.2571930332
 H        -4.8430971502        7.2937408067      -20.3730585567
 H         1.3501944066        3.1712123094      -17.0201655519
 H         0.5200739219        4.5051307092      -17.5835591986
 H         2.3012868390        4.6019183722      -17.2193794933
 H         3.1275413793        4.5025645454      -20.8261933812
 H         3.8026878584        4.5473790310      -19.1527148125
 H         2.4981391970        5.5787921599      -19.5736458475
 Na       -0.5401810441        1.0728850348      -18.2582993190
 Na       -4.2133864307       -4.6348279425       -6.9307608101
