232

 C         3.8658247477        1.9344438475      -18.7014225578
 C         2.3774572305        2.1000135892      -19.0122306963
 O         1.6280286530        1.1476443505      -18.8477847287
 C         1.8300599732        3.6383595202      -19.1757251430
 C         0.4662373313        3.6226979949      -20.0480853790
 O        -0.4083358628        2.7842062505      -19.6808181131
 C         0.1049074689        4.5150807720      -21.3225563184
 C        -1.3484881309        5.0691628384      -21.3979127842
 C        -1.7478737960        5.5022602776      -20.0262133552
 O        -0.9226494207        5.4349529300      -19.1487706323
 C        -3.4012356649        5.7366940846      -19.6798940948
 C        -4.1373848215        4.2685974825      -19.7711619328
 O        -4.2108744654        3.7728500459      -20.9196007221
 C        -4.5087601887        3.5346484741      -18.5362409724
 C        -5.0575576939        2.1443144043      -19.0231250192
 C        -3.8407719104        1.1642264204      -19.0683779038
 O        -2.9113932142        1.3850023329      -18.2900435479
 C        -3.8321756732       -0.0676285910      -20.0776661884
 C        -2.5306369575       -0.8917333819      -19.6153149899
 O        -1.3604189070       -0.6561793465      -19.7363465988
 C        -2.9524594588       -2.1834633397      -18.8897818027
 C        -1.7772520335       -2.8664838041      -18.1621174531
 C        -1.4145799536       -2.0975776162      -16.9214535991
 O        -1.5300937687       -0.9034071914      -16.7810669215
 C        -0.6361387990       -2.8944673103      -15.7684308564
 C        -1.6194133951       -3.9787532251      -14.9963679004
 O        -2.8217286053       -3.9349764622      -15.0806805563
 C        -1.0618686112       -5.2006350004      -14.3918457987
 C        -2.2247106126       -6.0220420802      -13.6597881665
 C        -2.2865465531       -5.6579794266      -12.1589346194
 O        -1.2474580474       -5.3734161469      -11.6154112617
 C        -3.6766149677       -5.6127312761      -11.4128882262
 C        -3.5195265819       -5.5386536837       -9.8292928244
 O        -4.1120872544       -4.7233418141       -9.1743208042
 C        -2.6215327669       -6.5477946163       -9.0573031109
 C        -1.5290435740       -5.6806264365       -8.3703241087
 C        -1.3999073266       -5.9428403595       -6.8281849965
 O        -2.3510261045       -5.8704472398       -6.1405930722
 C         0.0171401591       -6.2978073884       -6.3905479804
 C         1.0565490658       -5.0890990028       -6.4605960189
 O         0.8406784238       -4.0744527736       -7.1276607463
 C         2.4626153777       -5.2348430442       -5.6856085302
 C         2.9799847878       -3.8337501330       -5.4835950699
 C         1.9958454079       -2.9767641610       -4.6451020885
 O         1.0570207906       -3.5016869868       -4.0501238740
 C         2.1100307964       -1.4505603399       -4.7813355171
 C         1.0230555227       -1.0788920491       -5.7685104203
 O         1.1162289526       -0.2415988103       -6.6127664798
 C        -0.3494555449       -1.7506764371       -5.7407638251
 C        -1.4752725925       -0.9156356447       -6.3402904070
 C        -2.8357087563       -1.7630739922       -6.4385791297
 O        -2.7558538888       -2.9177554647       -6.3921863905
 C        -4.1150771846       -0.9139130041       -6.5297955480
 C        -4.7112004994       -1.3765793981       -7.8965457833
 O        -4.2933466939       -2.3059553366       -8.4969056237
 C        -5.7452154428       -0.4485580511       -8.5586866980
 C        -6.6998066243       -1.2376217283       -9.4325673079
 C        -8.2142539786       -1.0127888878       -8.9273465267
 O        -8.6253161323        0.0403459951       -8.4854090952
 C        -9.2514245083       -2.2503495781       -9.2113233907
 C        -8.9140989290       -3.3072981113       -8.1381825380
 O        -9.0234448320       -4.5216832776       -8.3341214831
 C        -8.4276159653       -2.7554444762       -6.7525486594
 C        -8.4221444414       -3.8092510957       -5.6339642061
 C        -7.3185916759       -4.8335469830       -5.9483984458
 O        -6.3552886527       -4.3531723317       -6.4877545182
 C        -7.3529677880       -6.2550205355       -5.3397540671
 C        -7.1028382688       -6.2083020578       -3.7640976794
 O        -7.6267770693       -7.0506565785       -3.0705498159
 C        -5.8203552403       -5.4597985030       -3.1599813100
 C        -6.0537926695       -5.0641485578       -1.6743522824
 C        -7.2318304708       -4.1253070745       -1.5226642286
 O        -8.0007877795       -3.8660659978       -2.4831762393
 C        -7.4145058656       -3.4484915285       -0.1670861674
 C        -6.1777643767       -2.2602851809       -0.2013813634
 O        -5.1247836311       -2.4692492478        0.3388707576
 C        -6.4599215830       -1.0461753133       -1.0648298982
 C        -5.2944128828       -0.0053535234       -1.0179366641
 C        -5.9116208400        1.4536023163       -1.0413025155
 O        -7.0537475118        1.5961988771       -1.3034505959
 C        -5.1000002518        2.7282145426       -0.7774772432
 C        -4.0653340020        2.9049737161       -2.0169751266
 O        -3.0327879555        2.2722511088       -2.0802453115
 C        -4.5735701508        3.5229769336       -3.2904768917
 C        -6.0711614547        3.9318146472       -0.6875896996
 C        -4.1425913553        2.5059907166        0.4511350552
 C        -8.7040405770       -2.7202197732       -0.1573125896
 C        -7.1970071997       -4.3989588111        0.9949890132
 C        -8.6520824567       -6.9724197665       -5.8535158978
 C        -6.1850238746       -7.0737742195       -6.0357465228
 C       -10.6344587514       -1.7079453317       -9.0419424239
 C        -8.9026657630       -2.5852415733      -10.6763132556
 C        -5.2243898335       -1.4426643227       -5.5785162186
 C        -3.8099008260        0.6250802624       -6.3535771017
 C         1.7824448488       -0.7848942144       -3.3819571605
 C         3.4807976829       -0.8510414695       -5.2377495435
 C        -0.1101802519       -6.7182782140       -4.9067351605
 C         0.4816799944       -7.4354293012       -7.2740079173
 C        -4.7227556073       -4.4883242932      -11.6980789742
 C        -4.4002123744       -7.0246555368      -11.6298895218
 C         0.5599120928       -3.6764216759      -16.4426378048
 C        -0.1290881933       -1.9285638219      -14.7113178291
 C        -5.1344868977       -0.9423238393      -20.1051180638
 C        -3.6130769150        0.4051755126      -21.4844163145
 C        -3.6717627893        6.4846740288      -18.3822293495
 C        -4.1814908552        6.4056524205      -20.8367213525
 C         1.5941213931        3.9988743888      -17.7174997916
 C         2.8473532428        4.6110182341      -19.7495850373
 H         4.1175509748        0.9345064109      -19.0852959632
 H         3.9166317921        2.0744584824      -17.6362303499
 H         4.5507555424        2.5952729222      -19.2901049537
 H         0.3616691286        4.0800385895      -22.2544218693
 H         0.7923256834        5.3672514215      -21.2540714847
 H        -1.9102944909        4.2749133320      -21.7668351234
 H        -1.3938406467        5.9362767837      -22.0675239814
 H        -5.1441467690        4.1730485698      -17.9400352010
 H        -3.6869181345        3.2839743170      -17.8920158649
 H        -5.6806860494        2.0239914814      -19.8943624167
 H        -5.6731253548        1.6774097280      -18.2457815829
 H        -3.2625987964       -2.9347457745      -19.6584256827
 H        -3.7642855020       -2.2037886217      -18.2351781822
 H        -0.9598197716       -2.9050594803      -18.8435395938
 H        -1.9361207389       -3.9082036316      -17.7955350094
 H        -0.2807616580       -4.9986935218      -13.6695721593
 H        -0.6999835621       -5.7386109044      -15.2918005776
 H        -2.0695959748       -7.0501418732      -13.6985921665
 H        -3.1194892917       -5.8228410016      -14.2056422965
 H        -2.0872376502       -7.3554685209       -9.6385327653
 H        -3.2198273573       -7.1749064267       -8.3756133890
 H        -1.8219234762       -4.6149124932       -8.4410204861
 H        -0.5253882245       -5.8688662603       -8.8960860324
 H         3.0604802326       -5.7782760541       -6.4103116131
 H         2.3099817500       -5.8157426411       -4.8393156547
 H         3.1370534324       -3.3127621395       -6.4596600504
 H         3.9897582205       -3.8677359939       -4.9920182222
 H        -0.6315783719       -2.0224192206       -4.6929646065
 H        -0.2790798548       -2.6232306034       -6.3768129549
 H        -1.3152198653       -0.7315050577       -7.4056186394
 H        -1.6069978296        0.0006500616       -5.7874793298
 H        -5.1460894807        0.1201352875       -9.1674050278
 H        -6.2416702819        0.2662980653       -7.8922973533
 H        -6.5651537321       -2.3259277182       -9.4148289243
 H        -6.8037103064       -0.9497786922      -10.5546733259
 H        -9.1011163089       -1.8814975741       -6.5099398988
 H        -7.4112355628       -2.3157503155       -6.9895329575
 H        -9.3834449596       -4.3504867369       -5.5221722440
 H        -8.2073841024       -3.4299543589       -4.5790394393
 H        -5.7977881755       -4.4723893467       -3.6313600821
 H        -4.9090512333       -6.0420413822       -3.3021604697
 H        -5.1647854521       -4.4642814325       -1.3460292729
 H        -6.0363397661       -5.9502462423       -1.0547505208
 H        -7.4249825084       -0.5469501707       -0.8360836053
 H        -6.6374975280       -1.4705140597       -2.0478119432
 H        -4.6438689384       -0.3185317220       -1.8043303918
 H        -4.8241145166       -0.1676517825       -0.0202038706
 H        -4.3334427702        4.5543071410       -3.1495120586
 H        -5.6487887452        3.3521438030       -3.2684703666
 H        -4.0298954106        3.0831710567       -4.1514886978
 H        -5.6063697766        4.9261200009       -0.4222114388
 H        -6.6926645735        3.5487658763        0.1649714803
 H        -6.5381317215        4.1963883932       -1.6665262819
 H        -4.7576862242        2.4017078385        1.3692181900
 H        -3.4454070844        3.3697601172        0.5455926007
 H        -3.4631586706        1.7004933256        0.2772658522
 H        -9.5262549460       -3.5376049098       -0.1765483481
 H        -8.6976634203       -2.0451539097       -0.9826059312
 H        -8.7152591069       -2.2930240050        0.8133848290
 H        -7.8675065017       -4.3222244301        1.8420151757
 H        -6.1327293162       -4.2432986169        1.3384820570
 H        -7.3443381246       -5.5105955293        0.7393080920
 H        -9.5417942518       -6.5607224298       -5.3742777342
 H        -8.4416703826       -7.9536286098       -5.4635178803
 H        -8.6509344281       -6.9764020505       -6.9682497477
 H        -6.2969411513       -7.0698106631       -7.1095780830
 H        -6.1957503055       -8.0701492076       -5.6346926095
 H        -5.1938158358       -6.6878888033       -5.8136128824
 H       -11.4025977465       -2.4799137473       -9.1967309719
 H       -10.8036511103       -0.9266853283       -9.7871935439
 H       -10.7478985504       -1.2038913356       -8.1109435189
 H        -7.9664631926       -2.9931023986      -10.7887656273
 H        -8.8342758643       -1.5836572904      -11.1828415336
 H        -9.6409750133       -3.1409080875      -11.1998329333
 H        -6.2000884806       -0.9287343462       -5.8183896242
 H        -4.9848979733       -1.3594742479       -4.5762103123
 H        -5.3515443761       -2.5022085441       -5.5647412347
 H        -3.2937494900        0.6867484721       -5.3569705925
 H        -4.7488829065        1.0898467068       -6.3259320885
 H        -3.1571847675        0.9995102636       -7.1333259970
 H         2.6151226654       -0.7048087490       -2.7767250503
 H         0.9770541059       -1.2885620619       -2.8094523882
 H         1.3806696724        0.1709013878       -3.6330758256
 H         3.5383234627       -1.0158119756       -6.2590714166
 H         4.3014672809       -1.3268406428       -4.6911940115
 H         3.5572431205        0.2503426222       -5.0286484239
 H        -0.1379129631       -5.8817076730       -4.2463534457
 H         0.6158681787       -7.4161564751       -4.5327741553
 H        -1.0970884720       -7.2428912612       -4.8363374441
 H         0.5868520692       -7.1265294409       -8.3236940274
 H        -0.0786142105       -8.3092612243       -7.1334474219
 H         1.4982223582       -7.7671877381       -7.0154149644
 H        -5.6841043677       -4.8356244327      -11.2791089271
 H        -4.7862204679       -4.0907704763      -12.6586375737
 H        -4.4706936943       -3.7026719703      -11.0368265620
 H        -5.3448778648       -7.0079843705      -11.1157108479
 H        -3.7261673005       -7.7956330606      -11.2219178483
 H        -4.7662689211       -7.1376897828      -12.6547571188
 H         1.1284028720       -4.1439665489      -15.6318973667
 H         1.1364503996       -2.9773430166      -17.0408639601
 H         0.4264525401       -4.4488387580      -17.1692447886
 H         0.1767109756       -1.0236251157      -15.2746476103
 H         0.5288043106       -2.5081839617      -14.0187730459
 H        -0.9342714734       -1.5196059607      -14.0967040071
 H        -5.1172256397       -1.8636311462      -20.6188043723
 H        -5.8641086916       -0.4191475555      -20.6919935463
 H        -5.5912426126       -1.1515189024      -19.1712519552
 H        -4.4432928907        0.7691222052      -21.9023757779
 H        -3.4602114842       -0.5602889373      -22.0360145937
 H        -2.8763548351        1.1387711490      -21.7021377076
 H        -3.0715146523        6.1329897212      -17.6295846476
 H        -4.6683184623        6.3805846502      -18.0891945847
 H        -3.4088269033        7.5572302422      -18.4612704148
 H        -4.3502507358        5.8010423197      -21.7407056248
 H        -3.8514121792        7.4558559157      -20.9866076456
 H        -5.1327076524        6.7362720339      -20.4165889910
 H         1.0498955847        3.2775897647      -17.1379486687
 H         0.9419077864        4.8954040994      -17.7059013205
 H         2.4567810666        4.1906284655      -17.1892847249
 H         3.2421175725        4.2504086826      -20.6600504330
 H         3.6234043622        4.8378676548      -19.0578478310
 H         2.3570808660        5.5302019831      -20.0773089998
 Na       -0.5822486103        0.9909221516      -18.0856218547
 Na       -4.2111763192       -4.5516590569       -6.9057546801
