232

 C         3.7533313750        1.9812100955      -19.2956224943
 C         2.2311806535        2.2942931559      -18.9118551343
 O         1.5953610767        1.4175759884      -18.3474125940
 C         1.6746984264        3.6793615295      -19.2405328978
 C         0.3221236093        3.4727543010      -20.0031923550
 O        -0.5181553240        2.6572621692      -19.6511244849
 C         0.0145330431        4.4953996933      -21.0518602875
 C        -1.5086011303        4.7728408492      -21.0520246739
 C        -2.0535808291        5.3374717733      -19.7817021344
 O        -1.3232048086        5.8239307308      -18.9911770600
 C        -3.6170781445        5.6429416439      -19.7923122268
 C        -4.2397184045        4.2260497797      -19.9307603597
 O        -4.2590874046        3.5863387592      -21.0194087482
 C        -4.8357949668        3.5292447727      -18.6794495013
 C        -5.1106028003        2.0749396128      -18.9174210113
 C        -3.8672766332        1.1414085455      -18.9674141595
 O        -2.9421151813        1.3516040941      -18.2197586813
 C        -3.7402525424        0.0079038056      -20.0415505359
 C        -2.6218931189       -1.0015427129      -19.6445793473
 O        -1.4415428431       -0.7424524133      -19.8389368844
 C        -3.0286747866       -2.3783776972      -19.0213210928
 C        -1.8279884355       -2.9539385316      -18.1935423120
 C        -1.2195231716       -2.1056695757      -17.0348440290
 O        -1.4392071297       -0.9093628760      -16.8859215195
 C        -0.5767075124       -2.9119563432      -15.8636620694
 C        -1.6509670022       -3.7884833941      -15.1432218911
 O        -2.8383289473       -3.7396480301      -15.3399295530
 C        -0.9314596835       -4.8993953602      -14.3654567037
 C        -1.9458952116       -5.7827155201      -13.5356680677
 C        -2.1773456769       -5.4636359960      -12.0324466005
 O        -1.3797299515       -4.9600466607      -11.2940130178
 C        -3.6376312735       -5.7307122873      -11.5242582235
 C        -3.5655464173       -5.5285959722       -9.9627434853
 O        -4.5319937481       -5.0488886188       -9.4613791007
 C        -2.4824176557       -6.2601155727       -9.0642791171
 C        -1.4399150194       -5.4436169679       -8.2902727499
 C        -1.3434754903       -6.0806730578       -6.8237750836
 O        -2.3229503932       -6.0239703570       -6.1814665552
 C         0.0649988402       -6.5768762233       -6.1705131274
 C         1.0237215631       -5.3398143252       -6.3529696005
 O         0.7044958057       -4.3724276572       -7.0260098811
 C         2.4570922926       -5.3361880570       -5.7983145720
 C         3.0198628719       -3.9173633254       -5.6208180645
 C         2.0391657319       -3.1256008969       -4.6513363661
 O         1.2212662897       -3.7300550016       -3.9873724237
 C         2.1214385302       -1.5819058764       -4.6995509310
 C         1.1181687917       -0.9879866265       -5.8308210840
 O         1.5419624312       -0.2016565071       -6.6493020131
 C        -0.3492447063       -1.5616012590       -5.8220681645
 C        -1.4488417499       -0.5403916775       -6.2310058500
 C        -2.7551471015       -1.3648412896       -6.3604775450
 O        -2.7531455923       -2.5406516072       -6.2205815427
 C        -4.1411835217       -0.7188911231       -6.5131974873
 C        -4.6462065232       -1.1029168725       -7.9789089895
 O        -4.1111437902       -1.9803221358       -8.5486883033
 C        -5.9188539274       -0.4067631717       -8.5863839696
 C        -6.7800372038       -1.3853451121       -9.3796859760
 C        -8.3418388087       -1.1864100825       -9.0806922613
 O        -8.6617420575       -0.0929693248       -8.6042507957
 C        -9.2839257963       -2.3411504969       -9.2409114243
 C        -8.8480577591       -3.3040917178       -8.0815916621
 O        -8.6045895809       -4.4731357168       -8.3542866057
 C        -8.8966249291       -2.9150132208       -6.5535652637
 C        -8.7213581297       -4.1279792995       -5.5968540661
 C        -7.4662363752       -4.8819494971       -5.9745444545
 O        -6.4056924802       -4.3075194019       -6.3361924487
 C        -7.4757520820       -6.3152510678       -5.4773382018
 C        -7.1103531542       -6.2484275188       -3.8447552181
 O        -7.7787331696       -6.9169573723       -3.1204519494
 C        -5.7656119393       -5.4727325772       -3.3616899147
 C        -5.9547084235       -4.9920227736       -1.8525809687
 C        -7.1946862259       -4.2080135156       -1.6001192968
 O        -8.0677448411       -4.2078320779       -2.4708553464
 C        -7.1949039534       -3.2860079194       -0.3060152139
 C        -5.9150330526       -2.3133191010       -0.3283963946
 O        -5.2170464773       -2.3997914126        0.6547829158
 C        -5.7926375120       -1.1652720926       -1.2807096463
 C        -5.0417843408        0.1383143638       -0.6806278651
 C        -5.7714279431        1.5114925679       -0.8648711136
 O        -6.9316956694        1.6028210867       -1.0036749933
 C        -4.8223310482        2.8408276614       -0.7365711525
 C        -3.9109278241        2.8029559673       -2.0212546161
 O        -2.8921704837        2.1478518728       -1.9451239868
 C        -4.3937286050        3.6504761388       -3.1649372276
 C        -5.8609367873        4.0291525170       -0.6661722242
 C        -4.0205841772        2.6059794807        0.6136882499
 C        -8.4304946307       -2.4555424926       -0.3082372850
 C        -7.0701277355       -4.2311643587        0.9271812456
 C        -8.7780523958       -7.0746366485       -5.5724776094
 C        -6.2527487076       -7.1429550925       -6.0821330959
 C       -10.8001027768       -1.9568103143       -8.9784794975
 C        -9.2337377273       -3.1451517906      -10.4733583127
 C        -5.0901619870       -1.4478475083       -5.4410228595
 C        -4.1021100062        0.8544169096       -6.3818784883
 C         1.5359820618       -1.0512212139       -3.3710020289
 C         3.5573265880       -1.0234848373       -4.9356722677
 C        -0.2446945301       -7.0324766912       -4.7618165008
 C         0.5948854430       -7.7656953556       -6.9799864151
 C        -4.4066027356       -4.6286027306      -12.2866634726
 C        -4.1501876040       -7.1729282558      -11.8595312010
 C         0.7378682482       -3.6148829868      -16.3439893517
 C        -0.0589690620       -1.9467660457      -14.6320037408
 C        -5.1978604616       -0.5165696944      -20.2959962004
 C        -3.4509896314        0.6994453334      -21.3772931967
 C        -3.9127093469        6.2108970076      -18.3386048973
 C        -3.9433241133        6.6767429511      -20.9115185471
 C         1.1965025780        4.4926827921      -18.0498544429
 C         2.5779117919        4.5108923190      -20.1173181933
 H         4.0425142732        1.0107674726      -18.9802710745
 H         4.4250610116        2.7675149450      -18.9587127660
 H         3.7561596315        1.9152323332      -20.3794272925
 H         0.3703413114        4.2819349403      -22.0957263536
 H         0.5293085994        5.4842585678      -20.8520917732
 H        -2.0532853313        3.8018152298      -21.2436924056
 H        -1.6167776183        5.4660093003      -21.8524858621
 H        -5.7551444399        3.8451362038      -18.2226567425
 H        -4.0422601328        3.6841120526      -17.8985554377
 H        -5.7192536280        1.9544791741      -19.8292928715
 H        -5.8012358676        1.7575168758      -18.0930322598
 H        -3.1629422436       -3.1462074954      -19.7717257422
 H        -3.9227701163       -2.5702558258      -18.3952103960
 H        -0.9964579873       -3.1207072276      -18.9867469722
 H        -1.9988377873       -3.9671403535      -17.8094382469
 H        -0.2036055394       -4.4026489624      -13.6872719316
 H        -0.4724431627       -5.5325189143      -15.1411147623
 H        -1.7135854296       -6.9183413486      -13.6623839665
 H        -2.9162995260       -5.7864156167      -14.1428605436
 H        -1.9112947785       -6.9769536954       -9.6209761380
 H        -3.1208450896       -6.8826701473       -8.4381669782
 H        -1.7543590860       -4.4405530131       -8.0990791062
 H        -0.5295157346       -5.2895974352       -8.8888610357
 H         2.9498354573       -5.9265204460       -6.5358434629
 H         2.3620000312       -5.9027016042       -4.8575846863
 H         3.1624124386       -3.3883535049       -6.5774208552
 H         4.0189164532       -4.0012640160       -5.2004142849
 H        -0.5344881906       -1.9791423782       -4.8086080854
 H        -0.2929845670       -2.3232864881       -6.4982336836
 H        -1.1663115425        0.0613716665       -7.0901758984
 H        -1.7594626651        0.1288990507       -5.3518965750
 H        -5.4527737980        0.3494980640       -9.2652199435
 H        -6.4183647625        0.1734625559       -7.8201038686
 H        -6.5285804038       -2.4473960256       -9.2154623105
 H        -6.6003935209       -1.0256976070      -10.3865755955
 H        -9.8958778727       -2.4354703437       -6.4088423942
 H        -8.1162635552       -2.1616112779       -6.3994979386
 H        -9.4956544820       -4.8648231782       -5.7680985118
 H        -8.7623710887       -3.8936734941       -4.5154699340
 H        -5.7129872641       -4.5271629104       -3.9356042485
 H        -4.9075070660       -6.1941894188       -3.4333843389
 H        -5.1123862580       -4.3354095303       -1.5585201540
 H        -5.8647053834       -5.8580705099       -1.2313840948
 H        -6.7953213525       -0.9679096029       -1.6796709545
 H        -5.2156732452       -1.5359996149       -2.1411997518
 H        -4.0997453507        0.1998373483       -1.1551824449
 H        -4.9616602065       -0.1656328175        0.3910382323
 H        -4.3814609682        4.6732391481       -2.8614171544
 H        -5.3700803315        3.2106085922       -3.3306861448
 H        -3.7418515574        3.4716788128       -3.9991761835
 H        -5.3809090565        4.9063566125       -0.9657710244
 H        -6.4746022524        4.1173557684        0.2527035883
 H        -6.5372477518        3.9103924235       -1.5318281737
 H        -4.5002747067        1.7557653939        1.1127985758
 H        -3.9216609177        3.5193311739        1.1970418685
 H        -3.0221761734        2.4269035094        0.3648665022
 H        -9.2994962963       -3.2536415365       -0.3030330271
 H        -8.4926455704       -2.0212294615       -1.2535687886
 H        -8.4185269025       -1.8908829027        0.6160354034
 H        -7.8587426844       -4.7744066161        1.3010847772
 H        -6.7213941431       -3.6283615904        1.7669700775
 H        -6.2748150086       -4.8817867814        0.6175176733
 H        -9.5008590577       -6.6610897463       -4.8294606011
 H        -8.5922718140       -8.0742765682       -5.3032483737
 H        -9.0590941216       -6.9282008947       -6.5785328079
 H        -6.3741415375       -7.0994267783       -7.1673479800
 H        -6.2997255999       -8.2157512285       -5.8686812023
 H        -5.2401279786       -6.6426710340       -5.9146150867
 H       -11.4211786497       -2.9103610070       -8.9177840122
 H       -11.0802035940       -1.1792415435       -9.6741523313
 H       -10.9645731327       -1.4277674704       -8.0388521297
 H        -8.1579376884       -3.2968670206      -10.7259833247
 H        -9.8241302618       -2.8110084145      -11.3881153267
 H        -9.6534176552       -4.1219899532      -10.2220339861
 H        -6.1606970147       -1.0386761178       -5.6817275177
 H        -4.8191674492       -1.3692096256       -4.3577532387
 H        -5.2988226910       -2.4954340226       -5.5586471258
 H        -3.9562754037        1.0576183976       -5.3200940725
 H        -5.0347313814        1.3001095323       -6.6195397660
 H        -3.3014100139        1.1350667995       -7.1182907427
 H         2.1290930375       -1.5679359444       -2.5969123711
 H         0.4421114544       -1.2417682089       -3.2563385816
 H         1.4398026553        0.0838187832       -3.2839855610
 H         3.9217547648       -1.0264299404       -5.9609542547
 H         4.2478553541       -1.7075915577       -4.3040019281
 H         3.4997145449        0.0386251851       -4.6420909340
 H        -0.6839202621       -6.2147132948       -4.2231041737
 H         0.5595878135       -7.4802347150       -4.2286723234
 H        -1.0112466067       -7.8758723069       -4.8088565602
 H         0.9931195686       -7.4756057116       -7.9625964977
 H        -0.0679922758       -8.5488435515       -7.0795539671
 H         1.4855103984       -8.2461906073       -6.4369857843
 H        -5.4707646861       -4.5394803107      -11.7966875059
 H        -4.5344746735       -4.9395030625      -13.3284717902
 H        -3.9268135908       -3.6536447303      -12.3044141059
 H        -5.0986502445       -7.4199798364      -11.3771802431
 H        -3.2895447264       -7.8198399514      -11.6229090995
 H        -4.1867883400       -7.3090806174      -12.9911874926
 H         1.3805597998       -4.1040904792      -15.5423136067
 H         1.3428811652       -2.9061404523      -16.9731648468
 H         0.5263306147       -4.4087273733      -16.9831652272
 H         0.9818244769       -1.6668302914      -14.8848485344
 H        -0.0528721592       -2.4891161875      -13.6850315945
 H        -0.6708360432       -1.0932987088      -14.5280231959
 H        -5.2691587778       -1.3317030779      -21.0258637057
 H        -5.9215195409        0.3006491612      -20.6427645726
 H        -5.7116765060       -0.9825912478      -19.4795554229
 H        -3.9562417491        1.5856293819      -21.3215639208
 H        -3.7421421478        0.0787705492      -22.2807079025
 H        -2.3536622101        0.9514101237      -21.6171728335
 H        -3.5889397455        5.4737367056      -17.5745158230
 H        -4.9906050051        6.2392574051      -18.1247481521
 H        -3.2269674500        7.1561744123      -18.1639649843
 H        -3.0380672997        6.9768827869      -21.3956537396
 H        -4.5122688470        7.4761706274      -20.4764789933
 H        -4.5824643559        6.2775110227      -21.7191794282
 H         0.1542478177        4.8149175512      -18.0705297394
 H         1.8756448340        5.3541631015      -17.7866146876
 H         1.1834124258        3.8747342094      -17.1287062828
 H         2.4152390268        4.3255871381      -21.1932382215
 H         3.6456387681        4.3911395857      -19.8543262167
 H         2.3502120111        5.5675539274      -20.1937641540
 Na       -0.6393026822        0.9354683805      -18.3464521022
 Na       -4.1382009589       -4.5042793996       -7.0318307502
