232

 C         3.3191828741        1.6987598962      -19.6238248971
 C         2.1278322079        2.3011895245      -18.8816767813
 O         1.5669202457        1.7889591094      -17.9093408481
 C         1.7063427915        3.7895464071      -19.3055621449
 C         0.2772828816        3.6136836048      -20.1087603384
 O        -0.3937194383        2.6334836022      -19.9877110270
 C        -0.1610953305        4.6720730778      -21.0919019937
 C        -1.7786192252        4.7575133730      -21.1171705441
 C        -2.2910861563        5.5338494195      -19.8506290759
 O        -1.6071914485        6.0188712522      -19.0094433525
 C        -3.9266617535        5.6957330619      -19.7908700777
 C        -4.5870948670        4.3251980248      -19.8512031444
 O        -4.6665694333        3.7979129030      -20.9520580129
 C        -5.2502346440        3.4582990403      -18.6664907578
 C        -5.3059933814        2.0075814882      -19.0886005192
 C        -3.9860936906        1.2124040522      -18.9683694277
 O        -2.9990369703        1.5208079820      -18.3897870419
 C        -3.7400762810        0.0590367061      -20.0139637430
 C        -2.5568478813       -0.9531876282      -19.5560921306
 O        -1.4013461563       -0.8763115140      -20.0344052395
 C        -2.9370569616       -2.0953383385      -18.7491431205
 C        -1.8044535856       -2.9796751452      -18.2000509633
 C        -1.2140163131       -2.1931600874      -17.0015589583
 O        -1.1968973844       -0.9565144121      -17.0138529815
 C        -0.4927268744       -2.8436260289      -15.8446711321
 C        -1.3328032555       -3.9025017917      -15.1987740521
 O        -2.5449296534       -3.9133950786      -15.2687243619
 C        -0.6424954000       -5.0140276558      -14.3313998869
 C        -1.7074687971       -5.8377655760      -13.5742370873
 C        -2.1323262902       -5.2442141572      -12.1468753418
 O        -1.4009254606       -4.6075427296      -11.4607766908
 C        -3.5511838861       -5.7261780554      -11.5218948412
 C        -3.4761048983       -5.7349695752       -9.8762816261
 O        -4.2041026830       -5.0056372983       -9.3131278560
 C        -2.5914040313       -6.6437145213       -9.1086100589
 C        -1.4923752348       -5.7710806485       -8.5129706098
 C        -1.4886687369       -6.0360408610       -6.9933444989
 O        -2.5065494213       -5.8347457581       -6.3111352605
 C        -0.2039770564       -6.5705250246       -6.2980093668
 C         0.7827930212       -5.2532607307       -6.5227544241
 O         0.5054724095       -4.2696068604       -7.1369102145
 C         2.1612978763       -5.4506496072       -5.7768726469
 C         2.8725578813       -4.0790503147       -5.5069811319
 C         2.0097391384       -3.2400741037       -4.6148248901
 O         1.1566368552       -3.7623987643       -3.9554276483
 C         2.1664663407       -1.7037360945       -4.5480459047
 C         1.1988450873       -1.0521894812       -5.7958623830
 O         1.6783278874       -0.2308886024       -6.5209269096
 C        -0.3157907118       -1.6048804285       -5.8231517090
 C        -1.3784970141       -0.6049914215       -5.9876030303
 C        -2.7685263694       -1.3427063524       -6.2447029628
 O        -2.8033329190       -2.5665412829       -6.3196603442
 C        -4.2066606136       -0.6816955448       -6.5909817047
 C        -4.7637548271       -1.2195200286       -7.9026686806
 O        -4.2375989783       -2.1075388198       -8.4609949157
 C        -6.0807998561       -0.5311969371       -8.4432311341
 C        -6.8117795069       -1.5982156838       -9.2453226246
 C        -8.3374615396       -1.3170658353       -9.1018225904
 O        -8.7824586367       -0.1914738411       -8.7691937945
 C        -9.3587353176       -2.5426281044       -9.1250549745
 C        -8.9109865237       -3.5129062516       -8.0742826636
 O        -8.2591639082       -4.4967203995       -8.3328153579
 C        -9.2475148346       -3.1709733450       -6.5386221023
 C        -8.7543389651       -4.1609166786       -5.3917852993
 C        -7.5034039537       -4.9021641674       -5.7960808636
 O        -6.4986254387       -4.2646252611       -6.0856512420
 C        -7.3152630563       -6.3994680156       -5.3531952541
 C        -7.0245612316       -6.3442214621       -3.8488957303
 O        -7.6705685947       -7.0070907005       -3.0718728839
 C        -5.7056339591       -5.6206388258       -3.3920828981
 C        -5.8834438206       -4.9714358655       -1.9320444644
 C        -6.9984367535       -3.9199550940       -1.7960679744
 O        -7.8161040883       -3.7884983953       -2.6879685372
 C        -7.0541295334       -3.1599958698       -0.4710379081
 C        -5.7079198875       -2.2363752637       -0.1853170539
 O        -4.9718816674       -2.4117920757        0.7683780271
 C        -5.5069489824       -1.0740172562       -1.1463316690
 C        -4.7453767459        0.1344931817       -0.5823970881
 C        -5.5633658893        1.4311781340       -0.7345435941
 O        -6.7022214494        1.3919176387       -1.0601875787
 C        -4.7862765967        2.7051845103       -0.5810249750
 C        -3.8559028396        2.7138642613       -1.8745266857
 O        -2.9768508358        1.9133426985       -1.9001687801
 C        -4.1773795528        3.6528168905       -3.0645689067
 C        -5.6770960651        4.0008381390       -0.4435575623
 C        -3.8081033127        2.7097060565        0.5733069227
 C        -8.3100533117       -2.2277253698       -0.5232129020
 C        -7.0701168263       -4.1710307922        0.7835523993
 C        -8.6977740686       -7.2276935111       -5.5555095776
 C        -6.1442273356       -6.9911949438       -6.1369846224
 C       -10.8123056734       -2.0984955503       -8.9649706174
 C        -9.2762447567       -3.2064837567      -10.4919975285
 C        -5.1930222039       -0.9906966200       -5.3953111616
 C        -4.0582424668        0.9249509483       -6.6409598429
 C         1.5961432966       -1.2495437145       -3.1822493340
 C         3.6079441573       -1.1765900651       -4.7873374160
 C        -0.3840205349       -6.8312920636       -4.7284891850
 C         0.3158814215       -7.7556167650       -7.1131861426
 C        -4.5984139165       -4.7727100741      -11.9425479694
 C        -3.8775280389       -7.2139420825      -11.8878637283
 C         0.8520836854       -3.4220840710      -16.6151020569
 C        -0.0134482251       -1.6234374507      -14.9023999526
 C        -4.9829871152       -0.7380782486      -20.3282704928
 C        -3.1793975180        0.8343813619      -21.2554798809
 C        -4.1847451646        6.3939161725      -18.3613698431
 C        -4.5400794164        6.5909629116      -20.9258512480
 C         1.5761090002        4.4050176536      -17.9254179529
 C         2.7535131956        4.5209839217      -20.1481041255
 H         3.8025037615        0.9633141359      -18.9770486095
 H         4.0926999312        2.4974359450      -19.9146644790
 H         2.9881978594        1.2006154186      -20.5475700364
 H         0.2662100509        4.4778396670      -22.0602967234
 H         0.2088136375        5.6178432452      -20.8352639972
 H        -2.1647111538        3.6515143507      -21.1534662868
 H        -2.0555566725        5.3418885468      -21.9869265962
 H        -6.2758802227        3.8132308545      -18.4916533208
 H        -4.7008883728        3.6215971608      -17.6946105062
 H        -5.5692640075        1.9036427650      -20.1457500336
 H        -5.9380385206        1.3473525348      -18.4997009776
 H        -3.7113224596       -2.7146326583      -19.1528796532
 H        -3.3698615500       -1.7112351683      -17.7641697295
 H        -1.1173919488       -3.2397422702      -19.0419863114
 H        -2.1295383331       -3.9211615605      -17.8227797648
 H        -0.1440695033       -4.5227764744      -13.4967651853
 H        -0.0268184958       -5.7191404041      -14.8311142624
 H        -1.3198960357       -6.8638447998      -13.5681394487
 H        -2.5777885897       -6.0664214289      -14.1120718922
 H        -2.1923416345       -7.4094358846       -9.7668778346
 H        -3.1701611772       -7.1320601007       -8.2692288682
 H        -1.5670715930       -4.6928010963       -8.8220064386
 H        -0.5230827154       -5.8884577301       -8.9937909492
 H         2.7365094673       -6.0542253555       -6.5212432391
 H         1.9194150387       -6.1085621408       -4.8380370113
 H         3.0696413235       -3.5352240252       -6.4317807137
 H         3.8527488955       -4.3166798593       -5.1493398397
 H        -0.4343301625       -2.2021798091       -4.8572380134
 H        -0.2162955696       -2.3843010009       -6.5890212357
 H        -1.2019518001        0.0445137844       -6.8061145460
 H        -1.3980094315        0.0151074036       -5.0618689221
 H        -5.6532634751        0.4785826216       -8.9270600245
 H        -6.6381843159       -0.1828382996       -7.5773091743
 H        -6.5468016945       -2.5649314800       -8.7557151457
 H        -6.4859534138       -1.4934711665      -10.2087043066
 H       -10.3138673442       -3.2290882352       -6.5262454076
 H        -8.9465415868       -2.1750360885       -6.4207819345
 H        -9.5181691834       -4.9508451257       -5.3429364178
 H        -8.6216507918       -3.7295215556       -4.3919660015
 H        -5.4615520168       -4.7646168291       -3.9579507827
 H        -4.9183168690       -6.3454888914       -3.4010155157
 H        -4.8876462651       -4.5558261820       -1.7562820877
 H        -6.0239007293       -5.7211355536       -1.1304456701
 H        -6.5194764338       -0.6752949703       -1.2183296352
 H        -5.1411326924       -1.2890272770       -2.1686540924
 H        -3.8140184672        0.2974880820       -1.1840011998
 H        -4.5138146219        0.0507260553        0.4786015545
 H        -4.2125925100        4.6866576688       -2.6407949969
 H        -5.1641732584        3.2193284562       -3.3007793547
 H        -3.5006839544        3.5834289953       -3.9104648209
 H        -5.1062822487        4.8705251679       -0.2203808904
 H        -6.4996993077        3.7912615552        0.3027484118
 H        -6.3465601462        4.1465218979       -1.3288137454
 H        -4.3822984019        3.1714169924        1.4148093961
 H        -2.9183719606        3.2715255138        0.2964286708
 H        -3.5309639316        1.6942288759        0.8986028084
 H        -9.2472095449       -2.8520796334       -0.5014343804
 H        -8.3016522792       -1.7997919005       -1.4341695056
 H        -8.1665342760       -1.6287002923        0.3258603883
 H        -7.2565488680       -5.2021515873        0.4372236363
 H        -8.0184602293       -4.1001506545        1.3772106345
 H        -6.1182296535       -4.1993611378        1.3360381075
 H        -9.4252707719       -6.9515899521       -4.7052724590
 H        -8.4740803269       -8.2830648017       -5.3843186620
 H        -9.0259128056       -6.9582307325       -6.5146590810
 H        -6.2733881344       -7.0942793193       -7.1673807946
 H        -5.8417172342       -7.9425183573       -5.7938097724
 H        -5.3889865398       -6.2185297527       -5.9419638331
 H       -11.4957118252       -2.9189142546       -8.7392104677
 H       -11.0348645532       -1.4356931504       -9.7363625084
 H       -10.8500900287       -1.5090086226       -8.0693895958
 H        -8.4447267863       -3.9274426528      -10.6029219985
 H        -9.2435518019       -2.4813629313      -11.2806512758
 H       -10.1439886791       -3.7308838837      -10.7461518907
 H        -6.2286046969       -0.6941475566       -5.4774640949
 H        -4.7744465235       -0.4924996743       -4.5274830937
 H        -5.3374858640       -1.9658630625       -5.2082937754
 H        -3.5734096781        1.1823526669       -5.7560378538
 H        -5.0077944157        1.4221137884       -6.5492140541
 H        -3.5932797740        1.1505286202       -7.6221953673
 H         2.2039348390       -1.5614185384       -2.3890685464
 H         0.6487218521       -1.6380299850       -3.0894926928
 H         1.3608432192       -0.1789128198       -3.1030153503
 H         4.2051753718       -1.6346280453       -5.5253219869
 H         4.1917236828       -1.2602999760       -3.8537186973
 H         3.3829677331       -0.2132098846       -5.0545818405
 H        -0.6643834378       -5.8962138070       -4.2394870898
 H         0.5778401838       -7.1828263765       -4.4119116586
 H        -1.0994628799       -7.6402966506       -4.4547672916
 H         0.2184602329       -7.5684988139       -8.2022315503
 H        -0.2971589737       -8.6153994796       -7.0916335417
 H         1.4278892129       -8.1161620606       -6.9323890075
 H        -5.5729881916       -4.8153817091      -11.3995778933
 H        -4.8237957687       -5.0290945957      -12.9318683195
 H        -4.2229339529       -3.8136457295      -11.9490364250
 H        -4.8439143362       -7.4181416689      -11.4931395362
 H        -3.1955538486       -7.8643312187      -11.3766903235
 H        -3.6232594590       -7.5384908308      -12.8757733941
 H         1.6900120078       -3.5417161385      -15.8771389052
 H         1.3271946662       -2.6039801890      -17.1531124046
 H         0.7353524320       -4.2751250226      -17.1873021212
 H         0.5207978800       -0.8527343489      -15.4798511109
 H         0.7897962824       -1.9454906286      -14.2377765540
 H        -0.9076416030       -1.3381309970      -14.3742872407
 H        -4.8299182718       -1.6359741929      -20.9042183278
 H        -5.8297984124       -0.1298708343      -20.8213599705
 H        -5.4745152656       -1.0854816699      -19.4538518834
 H        -3.9182170505        1.3889004025      -21.7558589048
 H        -2.4992236315        0.1658721049      -21.8568510682
 H        -2.3011204974        1.5224038136      -20.9641344884
 H        -3.8572155422        5.7490554722      -17.6179473292
 H        -5.1963491773        6.5496134680      -18.1521353827
 H        -3.5815719460        7.3517993678      -18.4134978563
 H        -4.8899451721        7.5344835000      -20.5404030451
 H        -5.3632238127        6.0870064678      -21.3867302478
 H        -3.7827486179        6.8389790788      -21.7422845398
 H         1.7883471465        5.4066328787      -17.8525866121
 H         2.0776023618        3.8497723596      -17.1743407048
 H         0.5066176032        4.4084139333      -17.6525882134
 H         3.1653725714        3.9499450096      -21.0190111853
 H         3.6016614445        4.8948210777      -19.6010873530
 H         2.4152526972        5.4397227788      -20.5775193821
 Na       -0.6834294528        0.7024108916      -18.4971113954
 Na       -4.2518304613       -4.1687479749       -7.0813071701
