232

 C         3.1691821460        1.4763809570      -19.6290264155
 C         2.0706900234        2.3024915231      -18.9483759746
 O         1.4321043236        1.7214402163      -18.0541576382
 C         1.7076223597        3.7629491647      -19.3481067812
 C         0.3478475416        3.6939816809      -20.0852326697
 O        -0.3115507404        2.6094969537      -19.9823307236
 C        -0.2695425113        4.8654310727      -20.9345528680
 C        -1.7927726010        4.8573115435      -21.0508122916
 C        -2.4687766768        5.6275766367      -19.9750666435
 O        -1.8071326843        5.9925712819      -19.0399954897
 C        -4.0149478825        5.6591466366      -19.7820127500
 C        -4.6380184993        4.2656372667      -19.8497224347
 O        -4.8561734109        3.7336872586      -20.9782814854
 C        -5.2150333141        3.4376334757      -18.6765295002
 C        -5.2299799075        2.0235548770      -19.0853361651
 C        -3.8149580024        1.2205344806      -19.0619272674
 O        -3.0001071585        1.7198357840      -18.2917213386
 C        -3.6362697465        0.0317534704      -20.1753049386
 C        -2.5730938981       -1.0207850840      -19.6886506954
 O        -1.4103437347       -0.8868052683      -20.0067233374
 C        -3.0701253460       -2.1476588034      -18.6695304471
 C        -1.9138146198       -2.9245020213      -17.9871037039
 C        -1.1293957388       -2.0828049102      -17.0259593389
 O        -1.2207970513       -0.8828007127      -17.1049139791
 C        -0.2772410286       -2.8107592598      -15.8734807119
 C        -1.2418748505       -3.9679614240      -15.1938383886
 O        -2.4309506155       -3.8529667970      -15.3459808821
 C        -0.5996861111       -5.0124326165      -14.2651537935
 C        -1.6322913947       -5.8035699903      -13.4331358397
 C        -2.1474374189       -5.3545713046      -12.0438750745
 O        -1.5144116193       -4.4900905538      -11.4380819163
 C        -3.5185881273       -5.8474389538      -11.5296301491
 C        -3.4676542791       -5.7629829639       -9.9748392285
 O        -4.0346989913       -4.8734590783       -9.3622847682
 C        -2.5033962076       -6.7042887285       -9.2181260663
 C        -1.4735912597       -5.8676524590       -8.4294154196
 C        -1.5868981775       -5.9709463752       -6.9210037990
 O        -2.5645231947       -5.6375480383       -6.3547680286
 C        -0.2531528357       -6.4231567688       -6.3927947906
 C         0.7231599729       -5.2714814114       -6.5422824564
 O         0.3834598422       -4.2892341827       -7.2507451903
 C         2.0832175017       -5.4466972643       -5.8440288411
 C         2.8508843579       -4.1773530234       -5.4968744539
 C         1.9811756568       -3.2817458518       -4.5679149647
 O         1.0432684191       -3.7238538953       -3.9026195592
 C         2.1256554323       -1.7207763430       -4.5946376937
 C         1.1658351020       -1.1370940796       -5.6601389279
 O         1.5593264817       -0.2706245224       -6.4165946541
 C        -0.3111392178       -1.6428725001       -5.7031767098
 C        -1.5766651263       -0.6551206001       -5.9874761584
 C        -2.8070830837       -1.4746831111       -6.2689448008
 O        -2.7432464856       -2.6581469954       -6.3005800895
 C        -4.1084664141       -0.6440044707       -6.4729066913
 C        -4.8142756285       -1.1674871074       -7.8255900235
 O        -4.3879105880       -2.1369567472       -8.3843783999
 C        -6.0749384855       -0.5790750090       -8.4581086907
 C        -6.9317475638       -1.6584004991       -9.0847137214
 C        -8.3742297797       -1.3114432327       -8.9906621803
 O        -8.7095396502       -0.1715636934       -8.8444324463
 C        -9.3531161729       -2.5288229914       -9.1138075341
 C        -8.8800421125       -3.6178001607       -8.0418097436
 O        -8.2136237945       -4.6192605625       -8.3163581934
 C        -9.3672406943       -3.2340315306       -6.6735610464
 C        -8.8510873554       -4.1421100519       -5.5513720541
 C        -7.4830999732       -4.8345137857       -5.7402757609
 O        -6.4779394504       -4.1805976893       -6.0821607436
 C        -7.2657388948       -6.2783564675       -5.3635217388
 C        -6.9832606440       -6.3841191718       -3.7584913375
 O        -7.6489271342       -7.0956819848       -3.0829087123
 C        -5.6757717063       -5.6432077989       -3.3148599566
 C        -5.8311550391       -4.9587824453       -1.9189562514
 C        -6.8663197782       -3.9156706721       -1.7826384478
 O        -7.5635325570       -3.5324358513       -2.7541013469
 C        -6.9910916628       -3.1576185238       -0.4758444216
 C        -5.7339974438       -2.2520078611       -0.1390897284
 O        -4.9746994255       -2.5912675245        0.7226533591
 C        -5.5311837992       -1.0958489261       -1.1319364634
 C        -4.6398579217        0.0040104397       -0.5357794553
 C        -5.4489425874        1.4231486873       -0.7265480755
 O        -6.6067715642        1.4706179012       -1.0714980791
 C        -4.6431951263        2.7849722219       -0.5397317910
 C        -3.8989896165        2.7266878189       -1.8767843209
 O        -2.9749475744        1.9340921739       -1.9905436010
 C        -4.1530813026        3.6961845258       -3.0077827439
 C        -5.6764359677        3.9090174989       -0.4818894402
 C        -3.6619319710        2.7145319315        0.7320940833
 C        -8.2214527834       -2.1894390144       -0.5354914715
 C        -7.1502374779       -4.1702192069        0.7818012353
 C        -8.4857904496       -7.2576232677       -5.5557376267
 C        -6.0836799207       -6.9265098470       -6.1441789228
 C       -10.8612076888       -2.1863274123       -8.8631513964
 C        -9.1995332016       -3.2680576848      -10.5113420304
 C        -5.0560959873       -0.9331523846       -5.2667576533
 C        -3.8537148079        0.8711849293       -6.8971030210
 C         1.5809309817       -1.2362874194       -3.2509525536
 C         3.6353646013       -1.2338052613       -4.7136420821
 C        -0.4273609288       -6.7492790387       -4.8885154448
 C         0.2554314284       -7.7513117622       -7.0135323708
 C        -4.6154316459       -4.8216524740      -11.9637157588
 C        -3.9192964968       -7.2932112992      -12.0435412199
 C         0.9887312012       -3.3578060524      -16.5426074835
 C         0.1326738551       -1.8879538294      -14.7603648271
 C        -5.0346894523       -0.6953508903      -20.4661743163
 C        -3.2607104426        0.8739015571      -21.4343483843
 C        -4.2286830235        6.4188327391      -18.4051942803
 C        -4.6246113316        6.5660043940      -20.8578776177
 C         1.3917896305        4.5697852828      -17.9626163062
 C         2.7828258975        4.4750194200      -20.1787079925
 H         3.3648715953        0.5111317936      -19.1221286081
 H         4.0803530086        1.9583328494      -19.8854730837
 H         2.6400437351        1.2742326532      -20.6022082983
 H         0.1965626537        4.7822040790      -21.9127888756
 H         0.0745304565        5.8539722084      -20.5080499182
 H        -2.0209614989        3.7688144641      -20.9096471847
 H        -2.1183995384        5.2360973694      -22.0458026671
 H        -6.2255953324        3.8430023730      -18.4578479209
 H        -4.6116105198        3.5411960937      -17.7129679324
 H        -5.4403227152        1.9323703313      -20.1462351462
 H        -5.9384106519        1.3862431404      -18.5101549628
 H        -3.6635428223       -2.9340373069      -19.1995026353
 H        -3.7066489758       -1.7856028115      -17.8260469932
 H        -1.2436395030       -3.2201199943      -18.8841260218
 H        -2.1808584422       -3.9044926857      -17.5520497788
 H         0.0981624300       -4.5528367474      -13.5799152322
 H        -0.1573513142       -5.7560823808      -14.9166298597
 H        -1.2815130449       -6.9008279273      -13.3940178317
 H        -2.5495958346       -6.0664271695      -14.0763983846
 H        -2.0444676400       -7.4082618175       -9.9083218603
 H        -3.0789292715       -7.2439448305       -8.4693067297
 H        -1.5910732454       -4.8557447369       -8.6443874296
 H        -0.4658692474       -5.8889421563       -8.8395229924
 H         2.6527050604       -6.0849373338       -6.5925991155
 H         1.8403485855       -6.0471014676       -4.9460753516
 H         3.2392306326       -3.6244169713       -6.3423137638
 H         3.7182286889       -4.5733343551       -5.0410643284
 H        -0.4468029837       -2.3159542589       -4.8254995245
 H        -0.1764480537       -2.3262153484       -6.4787042917
 H        -1.3535527079        0.0534839329       -6.7798213561
 H        -1.7957143346       -0.0230523744       -5.0715818661
 H        -5.6211354540        0.1888570613       -9.0718984488
 H        -6.6400949006        0.0027900351       -7.6488771873
 H        -6.7121843598       -2.5303246518       -8.5185440768
 H        -6.7040282926       -1.7264501650      -10.1357959604
 H       -10.4193274361       -3.1104219558       -6.6716859312
 H        -8.9084794152       -2.3006819897       -6.6134187031
 H        -9.5885573803       -4.8909959934       -5.2732276142
 H        -8.6531643570       -3.5203663243       -4.6745951720
 H        -5.3928027198       -4.8641396016       -4.0170788007
 H        -4.8246242307       -6.3324669898       -3.2277188280
 H        -4.8493451986       -4.4587157154       -1.7686229616
 H        -5.8624891565       -5.6955720863       -1.1510417017
 H        -6.4481957614       -0.6217611764       -1.4987226877
 H        -4.9892570245       -1.5365286169       -1.9819793881
 H        -3.7184598503        0.1454423534       -1.0649801084
 H        -4.4727881785       -0.1207265434        0.5822142715
 H        -3.9540680566        4.6913209245       -2.6355446692
 H        -5.1863367257        3.4423117522       -3.3486474339
 H        -3.4575597286        3.4373419176       -3.8511828521
 H        -5.2676152883        4.8063344160       -0.0052112065
 H        -6.5534555802        3.6233453837        0.0220703624
 H        -6.1321722852        4.0902965279       -1.4154312614
 H        -4.1273702865        3.3062573156        1.5715647998
 H        -2.6291149151        3.1119331390        0.4623382426
 H        -3.6589520422        1.6862119268        1.0653123214
 H        -9.0291217535       -2.9026191988       -0.7306405135
 H        -8.1304957761       -1.5383746067       -1.4181176101
 H        -8.2914187829       -1.6827459193        0.3940717248
 H        -7.2320039989       -5.1978441709        0.5401416593
 H        -8.0177442978       -4.0132889750        1.3919823485
 H        -6.1905671834       -4.0468543459        1.3185345554
 H        -9.1426683958       -7.1263334647       -4.6972224743
 H        -8.0157040525       -8.1979579645       -5.3724865551
 H        -8.9692012501       -7.1465276553       -6.5488476848
 H        -6.2716053208       -7.1763251558       -7.1685589119
 H        -5.7931103953       -7.8374649171       -5.6553828024
 H        -5.2656181341       -6.1970102639       -6.0720701102
 H       -11.4937945105       -3.0777079930       -8.8183537266
 H       -11.1023356346       -1.5112328045       -9.6645545743
 H       -11.0119789264       -1.7044612595       -7.9045235538
 H        -8.4827536725       -4.0557868305      -10.4854649383
 H        -9.0396935543       -2.6100350398      -11.4420500756
 H       -10.1169733915       -3.7983864810      -10.8273860169
 H        -6.0585446281       -0.5010824656       -5.3967833409
 H        -4.7600235821       -0.6040145384       -4.3404426616
 H        -5.3604755742       -1.9896587663       -5.2995388436
 H        -3.4072125142        1.3293882551       -5.9767523896
 H        -4.7306989720        1.3979445377       -7.1254451128
 H        -3.2270902500        0.7765109007       -7.7823845760
 H         2.2592033709       -1.5207103031       -2.4616958584
 H         0.5163296317       -1.6241393080       -3.0100374573
 H         1.4511808343       -0.1680731728       -3.1640114118
 H         4.1302552745       -1.6703414535       -5.5326647080
 H         4.2124969616       -1.5064812069       -3.8406801413
 H         3.5115063822       -0.0850000424       -4.9116397516
 H        -0.5798495707       -5.8632692541       -4.2904835804
 H         0.4179231092       -7.3644625713       -4.5723531054
 H        -1.3697205694       -7.4075132528       -4.8085695890
 H         0.4608149029       -7.8760675443       -8.1100010030
 H        -0.4993774794       -8.5196554701       -6.9521310180
 H         1.1448472806       -8.0639564285       -6.4601631410
 H        -5.5927642958       -5.2457590681      -11.6537959182
 H        -4.7041921100       -4.7225153747      -13.0230013289
 H        -4.4614833739       -3.8552561756      -11.5045486906
 H        -4.6612650595       -7.6878109014      -11.4303407910
 H        -3.1313689795       -8.0167406682      -12.0912059243
 H        -4.1010559536       -7.2436090209      -13.0979597914
 H         1.8343823681       -3.3447200933      -15.8697117326
 H         1.4177685699       -2.7122393105      -17.2690677581
 H         0.7858150606       -4.3107264632      -16.9478496187
 H         0.5597477164       -1.0013498729      -15.1675970450
 H         0.9952799934       -2.2580078033      -14.2775345436
 H        -0.6819470879       -1.7796275991      -14.1353545699
 H        -4.8251667323       -1.4727209835      -21.2654561351
 H        -5.7887196085       -0.0492180065      -20.9110713067
 H        -5.6308106693       -1.2565259085      -19.6615386858
 H        -4.2348526222        1.1142137584      -21.8348104805
 H        -2.5630128174        0.2587674324      -22.1404850128
 H        -2.6025963892        1.7780857267      -21.3836482029
 H        -3.6161339960        5.8278204236      -17.6766854543
 H        -5.2999826883        6.3624989328      -18.0397865399
 H        -3.8773623007        7.4605512874      -18.5813051428
 H        -5.4576254306        7.1111786277      -20.4320773836
 H        -5.1024847878        5.9640274066      -21.6138156484
 H        -3.9376898337        7.2205602094      -21.3039653662
 H         1.6740273366        5.6310068740      -18.1362044171
 H         1.9079312090        4.1611444785      -17.0645796511
 H         0.3762453369        4.6758150130      -17.7253360423
 H         3.0601417497        4.0171207998      -21.1428031514
 H         3.7565874168        4.7378982308      -19.6973250539
 H         2.4480279180        5.5390980184      -20.3695758445
 Na       -0.6354949098        0.8550112758      -18.4998111319
 Na       -4.3263670470       -4.1013133376       -6.9812922494
