232

 C         2.2211873307        3.1023860928      -21.3371364144
 C         1.1268024901        2.7399546844      -20.2493992246
 O         0.5870007515        1.6642492893      -20.2134770981
 C         0.6554826966        3.8747836773      -19.1650845974
 C        -0.8614819001        4.2556833976      -19.4001951395
 O        -1.7434398239        3.5451016660      -19.0820186337
 C        -1.1586966880        5.5261496957      -20.1673124354
 C        -2.5674355233        5.4757084366      -20.8061862350
 C        -3.5772180488        5.9748459858      -19.7175317569
 O        -3.3433061164        6.3582098633      -18.6055778158
 C        -5.0730477595        5.5874385495      -20.2360576549
 C        -5.2192816142        3.9833188365      -20.1529774760
 O        -4.7527773414        3.3296568570      -21.1366997951
 C        -5.7942645132        3.1259205229      -19.0169205703
 C        -5.7757362498        1.5366481028      -19.4555042607
 C        -4.3203383393        1.0668882815      -19.4537053160
 O        -3.4446238530        1.5928527496      -18.8707739880
 C        -4.0336075624       -0.2096502005      -20.3843838329
 C        -2.6589244530       -0.8662816313      -19.8450870537
 O        -1.6672467493       -0.4586146240      -20.4597037148
 C        -2.5648983165       -1.9638062451      -18.6892954633
 C        -1.1000918294       -2.3567858403      -18.3220534252
 C        -0.5074084444       -1.4963329041      -17.1703838416
 O        -0.5932904212       -0.3293135868      -17.1384897682
 C         0.1586010463       -2.3380674824      -16.0195404311
 C        -0.8460822292       -3.3792317316      -15.3568454058
 O        -2.0412362596       -3.0908210449      -15.3129261073
 C        -0.3506212687       -4.5823625691      -14.4761054658
 C        -1.5010648894       -5.4354851202      -14.0041182678
 C        -1.6626279450       -5.3814453345      -12.4691778169
 O        -0.7550850864       -5.3314600436      -11.7146460282
 C        -3.1126559867       -5.7001475299      -11.9212624982
 C        -3.1065664132       -5.5559809223      -10.3844022565
 O        -3.9938086836       -4.8963740695       -9.7889023798
 C        -2.0125823959       -6.2727782438       -9.5761093104
 C        -1.4206931072       -5.2693850457       -8.6035646539
 C        -1.6132662394       -5.8195208997       -7.1510892880
 O        -2.6694456009       -5.7114158185       -6.5648298942
 C        -0.4098141906       -6.4894834997       -6.5712232637
 C         0.5399540198       -5.2134046011       -6.2822564364
 O         0.2085264837       -4.0949089525       -6.5903764555
 C         1.7993096878       -5.5025733168       -5.4615922717
 C         2.4162616102       -4.1680525767       -5.0315117064
 C         1.4312404193       -3.5942044936       -4.0330745988
 O         0.7110625022       -4.4177434899       -3.4581043578
 C         1.3986570212       -2.0600403716       -3.6312100309
 C         0.4170803170       -1.2501466756       -4.5808740138
 O         0.9021741512       -0.3556389599       -5.2393131906
 C        -0.9880479801       -1.7593662992       -4.7718217015
 C        -1.9435688484       -0.6758777256       -5.1555026805
 C        -3.0881531678       -1.3457797912       -6.0158255006
 O        -3.3197841754       -2.5137386246       -5.7779301449
 C        -3.9660342553       -0.3743286841       -7.0134588055
 C        -4.9312156500       -1.1688449440       -7.8659378729
 O        -4.5348247889       -2.2148809166       -8.3446686713
 C        -6.3180569909       -0.6577654449       -8.2113119548
 C        -7.2361964807       -1.7389814685       -8.9638541947
 C        -8.7926082194       -1.5022975788       -8.7071226108
 O        -9.3155788451       -0.6163045160       -8.2146644700
 C        -9.6785202884       -2.9185586365       -8.7651807812
 C        -9.0322450581       -3.8955437105       -7.7521947866
 O        -8.6267159662       -4.9990597798       -8.1389625576
 C        -8.8259097099       -3.3919138447       -6.2756318376
 C        -8.5448018203       -4.5798442418       -5.2905364268
 C        -7.1378585601       -5.1273039169       -5.5043044705
 O        -6.2703209519       -4.4503105246       -6.0704605252
 C        -6.8596514521       -6.6010034198       -4.9925313036
 C        -6.5008451488       -6.7789145922       -3.4429308596
 O        -7.3285382904       -7.2629545955       -2.6881055581
 C        -5.1485216229       -6.2114457511       -2.9295000220
 C        -5.4682055202       -5.5264649652       -1.5763058502
 C        -5.8684671290       -4.1183404563       -1.8282312153
 O        -5.9104297028       -3.6143466372       -2.9543467055
 C        -6.3982574410       -3.2218558091       -0.6594573694
 C        -5.3336829490       -1.9951680134       -0.6178677338
 O        -4.2738956452       -2.0523592226        0.0487072727
 C        -5.6952764649       -0.6062278842       -1.3107570930
 C        -4.4178278741        0.2056610118       -1.3833278829
 C        -4.4481526244        1.5423664998       -0.5569186909
 O        -5.4490010535        2.1983564681       -0.3886871724
 C        -2.9872847064        2.0895101218       -0.2824342374
 C        -2.5248051422        2.6788953478       -1.6399899031
 O        -2.0528622437        1.8926876542       -2.4473168116
 C        -2.6935946430        4.1471079287       -2.0168693735
 C        -3.1292924953        3.2660304608        0.7601076269
 C        -2.0465465857        1.0045313143        0.1312136509
 C        -7.7181037207       -2.6165666478       -1.0709507581
 C        -6.4549620689       -3.8332798141        0.7192083447
 C        -8.0065093215       -7.5472032813       -5.3011357193
 C        -5.5495132407       -7.0855515526       -5.6768460460
 C       -11.1262546133       -2.4466901876       -8.4670940741
 C        -9.7050521277       -3.4835956642      -10.1877864672
 C        -4.4858029170        0.8727049307       -6.2246588360
 C        -2.7715539023        0.1257735052       -8.0412817886
 C         0.8902179969       -1.9513284266       -2.2576022479
 C         2.7668322364       -1.4081428952       -3.7700116498
 C        -0.7104813944       -7.1908816244       -5.1526577733
 C         0.4102308678       -7.4745242804       -7.5150108804
 C        -4.2276455537       -4.8130786720      -12.4950322707
 C        -3.2221333507       -7.1877432849      -12.3343064980
 C         1.4608354194       -3.0118136028      -16.5241059043
 C         0.8033407926       -1.3172425912      -15.0315955076
 C        -5.2366570569       -1.1305592334      -20.0349771070
 C        -4.1142637722        0.1493492055      -21.8464354306
 C        -5.9565154774        6.3369168236      -19.2067692460
 C        -5.3646497506        6.0209120574      -21.7004119317
 C         0.7495325855        3.0574905307      -17.8162189965
 C         1.5806890073        5.1598825775      -19.1547535225
 H         2.2324475372        2.3311963785      -22.1411585457
 H         3.1668439892        3.2303055321      -20.8627032209
 H         1.9295380253        4.0132383224      -21.8295809862
 H        -0.2544003496        5.4911046289      -20.9012590235
 H        -1.1909476175        6.5003098046      -19.7113873940
 H        -2.9857166714        4.4590243219      -20.9803165926
 H        -2.5883844676        6.0893692273      -21.6494807694
 H        -6.8097267303        3.4381139484      -18.7181498412
 H        -5.2170191099        3.3070013090      -18.1280726016
 H        -6.2980657722        1.2375055245      -20.3820544050
 H        -6.3541279785        0.8681197857      -18.7712319751
 H        -3.1575262429       -2.8599260065      -18.9972434062
 H        -3.1869920242       -1.5700257717      -17.8796272519
 H        -0.3589832706       -2.2439818319      -19.0997587629
 H        -1.0912761953       -3.3633957771      -17.9222411047
 H         0.0573171439       -4.1280527947      -13.5259211131
 H         0.5854798024       -5.0659734468      -14.8702873721
 H        -1.3592572098       -6.5134933202      -14.1800169001
 H        -2.3914078796       -5.1042402247      -14.4562855509
 H        -1.2636815686       -6.6925481316      -10.2500326439
 H        -2.4773819998       -7.0401234989       -9.0163332230
 H        -1.7597063862       -4.1689612577       -8.6019920734
 H        -0.3364196230       -5.0925100546       -8.7463975205
 H         2.5138399797       -6.0370328159       -6.2249282668
 H         1.6607799843       -6.1706034249       -4.6116360683
 H         2.5870099808       -3.5009043778       -5.8755446801
 H         3.3528387196       -4.2848973593       -4.4560671422
 H        -1.3584449662       -2.3846763290       -3.8790357294
 H        -0.8966383748       -2.5246009737       -5.5926614218
 H        -1.3115484119       -0.0315615726       -5.7908947184
 H        -2.3232824114       -0.2020221535       -4.2678481633
 H        -6.4070133250        0.2280555057       -8.8092146169
 H        -6.7557651492       -0.4287575805       -7.2902632334
 H        -7.0731736114       -2.6688786736       -8.4059692253
 H        -7.0853196957       -1.8104717954       -9.9505804964
 H        -9.7637068664       -2.8123454911       -6.0188707076
 H        -7.9070702941       -2.7186809987       -6.3392029604
 H        -9.2848171614       -5.3751563637       -5.5478172225
 H        -8.6983994870       -4.3248588020       -4.2112745707
 H        -4.5579135262       -5.4811788183       -3.5863244066
 H        -4.6540124524       -7.2265200397       -2.8442695115
 H        -4.5986797285       -5.4895384988       -0.9796207020
 H        -6.2848716252       -6.0090370568       -1.0162256704
 H        -6.3191869027       -0.0462967435       -0.5769545222
 H        -6.2433629003       -0.7507043192       -2.2520894748
 H        -4.2375850758        0.6235682727       -2.3991668811
 H        -3.5603302300       -0.3322426205       -1.0452211505
 H        -1.9521261467        4.7646704191       -1.4628524366
 H        -3.7089967425        4.5881626879       -1.9892597646
 H        -2.4073344917        4.2988239601       -3.0791406846
 H        -2.1775017303        3.6736174355        1.0781374155
 H        -3.3955392682        2.9063843495        1.7175485755
 H        -3.7072481727        4.0594587433        0.3851015142
 H        -2.6065458315        0.1433470472        0.6187031385
 H        -1.4175521321        1.4117911642        0.9739873558
 H        -1.4391380107        0.5211597337       -0.6023782906
 H        -8.5512823496       -3.2329726526       -0.7536244321
 H        -7.7745903649       -2.3850916560       -2.2269660576
 H        -7.9451160346       -1.6161417252       -0.7077128832
 H        -7.3942693855       -4.3065177722        0.9100786055
 H        -6.2764250961       -3.0894379076        1.5245654158
 H        -5.6602104589       -4.5677918524        0.9133035814
 H        -8.9063703046       -7.2582850719       -4.7718059046
 H        -7.7672736234       -8.5468562896       -5.0930715891
 H        -8.3272175841       -7.5526734811       -6.3748919772
 H        -5.7421212456       -7.1628485957       -6.7172614820
 H        -5.1991336256       -8.0133652788       -5.2240906901
 H        -4.6926122130       -6.4030924551       -5.5065205091
 H       -11.8716875208       -3.1571302546       -8.8333552800
 H       -11.1944701833       -1.6218559304       -9.1200509119
 H       -11.2569812406       -2.1448961999       -7.4454188277
 H        -8.8526893885       -4.0596552752      -10.5142934183
 H        -9.8482315992       -2.7308291761      -11.0586814776
 H       -10.5432539841       -4.1986285876      -10.1459311047
 H        -5.1139109900        1.5054026099       -6.9257918194
 H        -3.6327777796        1.4237411459       -5.8030771881
 H        -5.1079323541        0.4626599342       -5.2879669373
 H        -1.9520627846        0.6156797674       -7.5165922692
 H        -3.0776762897        0.6713549410       -8.8833473646
 H        -2.2344476950       -0.7321956226       -8.4604130203
 H         1.4586561430       -2.5527079540       -1.4806215782
 H        -0.1648099324       -2.3846810871       -2.1708211451
 H         0.9533821179       -0.8860870217       -2.0147739421
 H         3.2556683765       -1.4380740543       -4.7583294849
 H         3.4872175495       -1.6632737524       -2.9747943558
 H         2.5857579406       -0.3141214224       -3.5186827034
 H        -0.8848690110       -6.3872913320       -4.4631768778
 H         0.1642066507       -7.7353384287       -4.8363900431
 H        -1.6774673377       -7.8204135740       -5.1817944781
 H         0.7872161822       -7.0339392896       -8.4468882062
 H        -0.2427169855       -8.3264090323       -7.7552593723
 H         1.2134198750       -7.8467745638       -7.0749174881
 H        -5.0295370419       -4.5930004115      -11.8268108237
 H        -4.5841641245       -5.4333722622      -13.2805164664
 H        -3.8140076226       -3.8968704985      -12.9288912402
 H        -3.9462315166       -7.7602800585      -11.8513667186
 H        -2.2629935669       -7.6564991047      -12.0988945134
 H        -3.4771051414       -7.2768500649      -13.3913834016
 H         2.1466108829       -3.3183527535      -15.6998430366
 H         1.9232730208       -2.3980654036      -17.3199943106
 H         1.2140735426       -3.9505205876      -16.9978223180
 H         1.7598209374       -0.9484549916      -15.4336090298
 H         1.1543477508       -1.7605278427      -14.0878176384
 H         0.0907514494       -0.5223183476      -14.9086837537
 H        -4.8715651788       -2.1936920170      -19.9403703606
 H        -5.9430947617       -1.0129142766      -20.7867041618
 H        -5.6153918596       -0.7185771038      -19.0377270555
 H        -5.1597880634        0.3571936897      -22.0125304428
 H        -3.7972394469       -0.6457735158      -22.4124073472
 H        -3.5648150680        1.0247126120      -22.1390833536
 H        -5.7067276237        6.0340847474      -18.1143904829
 H        -7.0532044771        6.2077190550      -19.5121726982
 H        -5.9120074443        7.4194203277      -19.2225530021
 H        -5.5004414300        5.1106171988      -22.2512694630
 H        -4.7121537068        6.6634308412      -22.2349685567
 H        -6.1972152866        6.6153039951      -21.7164997663
 H        -0.0213350186        3.4347157027      -17.1398764712
 H         1.7525754682        3.2768604262      -17.3793492091
 H         0.5575819256        2.0649738460      -17.9980094499
 H         1.4468277140        5.7769109816      -20.0478069199
 H         2.6169377206        4.7870618241      -19.2208869880
 H         1.3230521274        5.6545252384      -18.2106735697
 Na       -1.2064048001        1.1695556102      -18.8223209291
 Na       -4.3488245564       -4.3046044257       -7.4540731159
