232

 C       -18.8030195967       -5.0690263027       -5.3913558862
 C       -19.0681627739       -6.0093961296       -4.1460930327
 O       -18.3103047927       -6.9721247655       -3.9745134217
 C       -20.3436659342       -5.7941051864       -3.2497455642
 C       -19.9458774739       -5.8653543499       -1.7070902228
 O       -19.8751491982       -6.9790854610       -1.2033163328
 C       -19.9965697006       -4.6448985543       -0.7779953953
 C       -18.8545279505       -4.6995772691        0.2689162689
 C       -17.5789631448       -4.2223730803       -0.4257527624
 O       -17.6680921699       -3.5566924855       -1.4295035143
 C       -16.1353204617       -4.6744697151        0.1519378786
 C       -16.0001538781       -6.2172652874       -0.4115763833
 O       -16.8700318760       -7.0446203768       -0.2634333664
 C       -14.8699387002       -6.5766619824       -1.3978675862
 C       -14.3391738034       -8.0392413097       -1.1135254884
 C       -14.8607787789       -9.0765964282       -2.1893124623
 O       -16.0484205037       -9.1049300654       -2.5282170710
 C       -13.8295244269      -10.1815358791       -2.5864029134
 C       -12.9021070004       -9.4182814662       -3.6693812803
 O       -13.2265924168       -8.2980835445       -3.9162670611
 C       -11.6686667027      -10.0916866773       -4.3458999378
 C       -10.6656824429       -9.0614580812       -4.7974795765
 C        -9.3879069979       -9.7180123780       -5.3383039993
 O        -9.0036614618      -10.8245115581       -5.0241004755
 C        -8.3785411517       -8.9269108472       -6.4277079996
 C        -8.2604022279       -7.4512262630       -5.9660774554
 O        -9.0554657233       -6.9678003286       -5.2232223381
 C        -7.1650786056       -6.5160470992       -6.6096047006
 C        -7.7689904533       -5.0995290723       -6.8647428626
 C        -8.4949571337       -5.0953551318       -8.2592790530
 O        -9.0371113815       -6.0488986214       -8.7702635632
 C        -8.6957885508       -3.6974811247       -8.9914325003
 C        -7.2487600879       -3.4910090024       -9.5362611771
 O        -6.3364446613       -3.5553234645       -8.7018643000
 C        -6.9493315080       -3.4902161740      -10.9600347307
 C        -5.5317097550       -3.3103790011      -11.4373230020
 C        -5.5414003150       -2.4533070500      -12.7348821883
 O        -6.5430108535       -1.7851987269      -12.9912292475
 C        -4.3346455663       -2.5175931492      -13.6664408556
 C        -2.9351840864       -2.8875851508      -13.0250026764
 O        -2.7791521338       -3.4736836985      -11.9469474685
 C        -1.5895270835       -2.7244731767      -13.8373849376
 C        -0.2809761109       -3.0540133172      -12.9658828495
 C         0.8916539165       -2.0851532314      -12.9718619081
 O         0.9223571873       -1.2187199876      -13.8208101304
 C         2.0435367492       -2.3988310423      -11.9501658677
 C         2.7135551105       -0.9498519729      -11.6998456929
 O         3.9358817363       -0.8863853942      -11.4942916215
 C         1.7965616039        0.2038342438      -11.4428327746
 C         2.5088254963        1.1478005349      -10.5103217954
 C         2.6394265808        2.6058199393      -11.0176557988
 O         1.9318918778        2.8967853455      -11.9518871073
 C         3.5298175690        3.6741885695      -10.3257739820
 C         4.2172151432        4.3591970296      -11.6256416583
 O         5.3876815998        4.0517631743      -11.9560067382
 C         3.3831529254        5.3220746050      -12.4507956483
 C         3.9832778010        6.7348849510      -12.2833152350
 C         5.4395527916        6.8098910973      -13.0924929458
 O         5.3955886388        6.2446252647      -14.1313931089
 C         6.4879714105        7.8390411694      -12.6256825542
 C         7.6790895735        7.6812329394      -13.7390120606
 O         7.7828864097        8.4982768444      -14.6244790926
 C         8.5440559876        6.3994514319      -13.6629345218
 C         9.2836191702        6.0711128578      -14.9940048082
 C         8.4351192767        5.8181300269      -16.2757195284
 O         7.2382156833        5.4720130046      -16.1865232774
 C         9.0359202651        6.1595528851      -17.7555586175
 C         9.7869153538        4.8441756857      -18.2499452669
 O        10.4588823893        4.2915626995      -17.4064449199
 C         9.8167505431        4.3666722327      -19.7172968401
 C         9.8692622617        2.8922549143      -19.7278472396
 C         8.4698471110        2.4328877499      -19.3457736549
 O         7.9241052171        3.0964070205      -18.4124868405
 C         7.6594650940        1.2686220325      -19.9325597667
 C         7.6698430300        0.1518918304      -18.8291817592
 O         8.1560607901       -0.9180684228      -19.0410355718
 C         7.0178449372        0.6081472857      -17.4747892690
 C         8.0742602850        0.4307081232      -16.3325626567
 C         7.4912977815        1.2693025753      -15.1222244201
 O         7.8936002796        2.3444366340      -14.7238162982
 C         6.0936840582        0.6158993134      -14.4421033026
 C         4.8864633177        1.3915378857      -15.1278973641
 O         4.9820147935        2.5808644728      -15.3363176427
 C         3.5600593108        0.6476621918      -15.2937692113
 C         5.9967096994       -0.9047554838      -14.4783515362
 C         6.0797041925        1.1390750756      -12.9469794119
 C         6.0388062250        1.5895477673      -20.2347334244
 C         8.3348801967        0.7421570963      -21.2362894547
 C         7.8624992760        6.5820801599      -18.6890038379
 C        10.0494771790        7.2836562750      -17.7172723436
 C         5.8230480458        9.2432480803      -12.7664664175
 C         6.9681365944        7.7303516349      -11.2242732484
 C         2.7018019860        4.5705856645       -9.4967617953
 C         4.5470314610        2.8772760161       -9.3875791043
 C         1.5268438655       -3.0142365819      -10.5800080140
 C         3.1571646404       -3.3377943769      -12.6409331831
 C        -4.6270342490       -3.7531310744      -14.7312187984
 C        -4.2821284195       -1.2668087252      -14.5205113677
 C        -9.7916053846       -3.8104738793      -10.0398294337
 C        -8.9559972499       -2.5872045876       -8.0109620909
 C        -6.9758478183       -9.6295811197       -6.5707177400
 C        -9.2741237177       -8.9120202683       -7.6984668723
 C       -12.9655433361      -10.6965630950       -1.4496052213
 C       -14.5659226815      -11.3551629270       -3.3369381549
 C       -15.1335756740       -3.7323617620       -0.3953628035
 C       -16.2181776188       -4.5582704164        1.7052419252
 C       -21.0101813662       -4.5547992077       -3.7111866046
 C       -21.2695887024       -6.9747235839       -3.4398036021
 H       -18.3217772493       -4.1880035319       -4.9750438674
 H       -19.7000565383       -4.8948634378       -6.0560761777
 H       -18.0542284190       -5.5480046882       -5.9840763252
 H       -21.0040075838       -4.6537259300       -0.2925756285
 H       -19.9925491734       -3.7131966913       -1.3506445698
 H       -18.7909836737       -5.6368167006        0.7892686385
 H       -19.1295642268       -3.9923455389        1.0321585321
 H       -13.9936151678       -5.9033876156       -1.3364656151
 H       -15.3327773080       -6.5271240186       -2.4094495285
 H       -14.6751669173       -8.4584206036       -0.1570026890
 H       -13.3226089519       -7.9410353684       -1.2022308331
 H       -12.0290003782      -10.7423083829       -5.1434593284
 H       -11.2899061361      -10.7917808734       -3.6040533176
 H       -10.3900164492       -8.4933354570       -3.9274020848
 H       -11.0756713297       -8.3378676566       -5.4841416532
 H        -6.8530285856       -7.0007668930       -7.5133578829
 H        -6.2176905318       -6.4815320978       -6.0845002738
 H        -6.9662739556       -4.2595532347       -6.9457071986
 H        -8.4743592412       -4.9436842047       -6.0311717132
 H        -7.6392191291       -2.7765186232      -11.4577724116
 H        -7.3245008910       -4.4763171789      -11.2606080921
 H        -5.0530920347       -4.3376400022      -11.6920658948
 H        -4.8032946202       -2.8382553444      -10.8197574390
 H        -1.4367849671       -1.7752224252      -14.3503841168
 H        -1.6001873375       -3.5106853788      -14.5884155703
 H         0.1051893975       -4.0809418065      -13.2829178300
 H        -0.8257925754       -3.3322750834      -12.0805752571
 H         0.8071135805       -0.0958273746      -11.1356650749
 H         1.5445129105        0.7116260294      -12.3828499777
 H         3.5755086217        0.8426760755      -10.3197947826
 H         2.0102930902        1.0012685729       -9.5933454321
 H         2.3027324240        5.4181476726      -12.1605156465
 H         3.5774829468        5.0938102049      -13.4996892091
 H         4.1631454435        6.9890044576      -11.2153917577
 H         3.4165621093        7.6244496248      -12.4858398254
 H         8.2473302630        5.5107812836      -13.1509009628
 H         9.3370927398        6.6799902365      -12.9849995124
 H         9.7681553074        5.1857777679      -14.7348975207
 H        10.1610213247        6.8674481523      -15.1839424147
 H        10.6940970838        4.9329127235      -20.1325426444
 H         8.9517129555        4.7351200080      -20.2898030597
 H        10.6088313343        2.6859528323      -18.8508219227
 H        10.3071000608        2.4315716130      -20.6183944385
 H         6.1482748429        0.0611427711      -17.1625483438
 H         6.7896996323        1.6187536149      -17.4916575620
 H         9.1467278413        0.7351086572      -16.4863288016
 H         8.2548442444       -0.6290982643      -16.0525876116
 H         3.5541624509       -0.2813418767      -15.8116236206
 H         2.8269222532        1.2878179929      -15.6557891261
 H         3.1954649049        0.4479042394      -14.2343307217
 H         5.0110106728       -1.2350551584      -14.1173020332
 H         6.7865892763       -1.4296839333      -13.8996861427
 H         5.8945990610       -1.2561034161      -15.5148279699
 H         5.3302695561        0.9406487153      -12.2687362133
 H         6.1472196551        2.2210651399      -12.8318546242
 H         6.9920400384        0.7105090976      -12.4659474549
 H         5.6320022385        0.5606396068      -20.4389266573
 H         6.0450507270        2.2843313134      -21.1097514929
 H         5.4143614461        2.0874766141      -19.4540713902
 H         7.7898207128       -0.0426217444      -21.7573117036
 H         9.2845609218        0.2785574554      -21.0164457148
 H         8.5006219909        1.4772648685      -21.9965078161
 H         7.4216382103        7.5438308375      -18.3520256184
 H         6.9979082208        5.8958792569      -18.6407084167
 H         8.2287834411        6.6390573243      -19.7172800222
 H        11.1077874086        6.9949629777      -17.2893542527
 H         9.8799685180        8.1084792620      -17.0820095391
 H        10.1920056777        7.6556065885      -18.7494216612
 H         6.5944918351       10.0414457011      -12.9926065372
 H         5.1787455049        9.4681156612      -11.8881733083
 H         5.1685725608        9.3272654095      -13.6238172703
 H         7.5529450010        8.5982397095      -10.8557994309
 H         7.4122543066        6.7434155566      -11.1240868496
 H         6.0399423657        7.7942789093      -10.6070551861
 H         1.8990843166        3.9815031819       -9.0164501304
 H         2.1630108508        5.3235463865      -10.0868834498
 H         3.0646773179        5.1646936090       -8.6362776353
 H         5.3153378434        3.5629808634       -9.0107380312
 H         5.1064019814        2.1065942069       -9.9329675031
 H         4.0180102181        2.5557552901       -8.4521141935
 H         0.7585498429       -2.4625188822      -10.1139114640
 H         2.4244868974       -2.9522987727       -9.9247102246
 H         1.1590757515       -4.0455088894      -10.6831860273
 H         2.7074874717       -4.3572159144      -12.6970326193
 H         3.9984147920       -3.3594134943      -11.9295002625
 H         3.4120384492       -3.0684546826      -13.7132509229
 H        -4.2763011857       -3.5829828781      -15.7592542893
 H        -5.6783599596       -3.8025963143      -14.8163893314
 H        -4.1641943903       -4.6712584976      -14.3546158032
 H        -3.5728208465       -1.4387096536      -15.3413850126
 H        -4.0900203739       -0.2831299457      -14.0256351725
 H        -5.2323131344       -1.0297114381      -14.9922720930
 H       -10.7677913541       -4.0316429570       -9.6825459848
 H        -9.5652375208       -4.5385076652      -10.8048063460
 H        -9.9820104734       -2.8443216271      -10.4884011655
 H        -9.5533153773       -3.0165721937       -7.2334029818
 H        -9.6644324818       -1.8074945828       -8.2487336267
 H        -8.1165128318       -2.2277484052       -7.4778289183
 H        -7.1254084243      -10.4797134847       -7.2487880189
 H        -6.5500695022       -9.9579555042       -5.5950007693
 H        -6.2325384302       -8.9459959779       -6.9837404532
 H        -9.2930926917       -9.8677447833       -8.1087051359
 H        -8.8040877763       -8.3284589685       -8.5157880395
 H       -10.1782440494       -8.3522210745       -7.3520271979
 H       -12.2820208134      -10.0121499424       -0.9978186093
 H       -12.3731972539      -11.5592818670       -1.8095755937
 H       -13.4454600763      -11.2082631613       -0.6737703890
 H       -15.4004612164      -10.9385508792       -3.8989181504
 H       -14.9926573402      -12.1540433371       -2.6241419641
 H       -13.8389297956      -11.8409096285       -4.0856088940
 H       -15.1706225728       -3.5693103219       -1.4335395948
 H       -14.0436172689       -3.9175322892       -0.2324240386
 H       -15.2182612289       -2.6970334447       -0.0103078514
 H       -16.9798112678       -5.1523013942        2.1002465714
 H       -16.4090986615       -3.5205166865        1.9638961133
 H       -15.3713758953       -4.9390953601        2.2197768863
 H       -20.5200875621       -3.6350751075       -3.5008233363
 H       -21.9020903667       -4.4180692514       -3.1759762971
 H       -21.2445281620       -4.5681905318       -4.7979357759
 H       -22.1944887903       -6.6834114956       -2.8917992346
 H       -20.9281933271       -7.8791754928       -2.9808143864
 H       -21.4993889341       -7.1797349067       -4.4642466002
 Na      -18.0886254209       -8.2713180163       -1.9546599211
 Na        6.2495628239        4.2170723436      -14.3053355089
