232

 C         1.9793538018        3.5721139011      -21.3183555538
 C         1.0567222592        3.0392193022      -20.1904028980
 O         0.6223369567        1.9215718803      -20.3991638241
 C         0.7373543968        3.9109906032      -18.9744769145
 C        -0.7859434117        4.3133794724      -19.3848907276
 O        -1.6387164194        3.4881937796      -19.3964505081
 C        -1.1663722108        5.7213651432      -19.9579346370
 C        -2.5541313597        5.7737805949      -20.6822707815
 C        -3.7118811938        6.0449336962      -19.7965080193
 O        -3.5986229749        6.5610557279      -18.7153442206
 C        -5.1550776792        5.5469487793      -20.3024539406
 C        -5.1405449459        3.8949215816      -20.3152958257
 O        -4.7282141822        3.3056517862      -21.2947213032
 C        -5.5987646838        3.0764587348      -19.0489630398
 C        -5.8568777628        1.5396091374      -19.3344177905
 C        -4.4761290255        0.8205507786      -19.5112493758
 O        -3.5803229807        1.2929988313      -18.8781457143
 C        -4.4086797471       -0.5138557876      -20.2668281629
 C        -2.9124867937       -0.9556372488      -19.8912932998
 O        -1.9697703642       -0.7091223939      -20.5290843070
 C        -2.5874575277       -1.8362876144      -18.5305657435
 C        -1.0703008258       -2.1573464301      -18.4171736630
 C        -0.4880753875       -1.3616199044      -17.3232153505
 O        -0.2842895714       -0.1568057985      -17.3571788651
 C         0.0862211251       -2.1706902506      -16.0322675897
 C        -1.0327661017       -3.2916532434      -15.5990472218
 O        -2.2111466115       -3.0716602655      -15.7380164259
 C        -0.4539162134       -4.4087089830      -14.6157141514
 C        -1.4995560132       -5.4096232964      -14.0864625922
 C        -1.6053903499       -5.4017367489      -12.5711641785
 O        -0.7295032598       -5.0117400536      -11.8279835689
 C        -3.0217169449       -5.6175162632      -11.9381964444
 C        -3.1475100958       -5.5612836808      -10.3331454510
 O        -4.1243996518       -5.0018632571       -9.8459519623
 C        -2.1968608852       -6.3291307370       -9.4446970925
 C        -1.4418241944       -5.3581770553       -8.5553365782
 C        -1.4581856421       -5.7878134280       -7.1460974391
 O        -2.4514140746       -5.5579426571       -6.4309621191
 C        -0.2204587059       -6.4990630409       -6.5683255177
 C         0.7244379044       -5.3122832183       -6.0061226175
 O         0.2746302860       -4.1962290287       -6.2601920417
 C         2.1620459262       -5.3941159482       -5.4537037577
 C         2.5052890798       -3.9651041289       -4.8391619796
 C         1.4248539952       -3.5489428474       -3.6992464894
 O         0.9089471118       -4.5046833100       -3.1274305000
 C         1.3153348876       -2.0944783601       -3.3322636798
 C         0.3263336709       -1.3216350973       -4.3957760216
 O         0.7846606192       -0.4296248922       -5.0748234669
 C        -1.1181254574       -1.8711128215       -4.6129638312
 C        -2.1243914003       -0.7569245196       -5.2977704668
 C        -3.2288140089       -1.3979856809       -6.1437126188
 O        -3.6748073048       -2.4917698391       -5.9146465034
 C        -3.9447885303       -0.4878391519       -7.2463727925
 C        -5.0552800976       -1.2531823837       -8.0091347547
 O        -4.8031290214       -2.4403355707       -8.3477818918
 C        -6.4659824361       -0.7455570989       -8.1630907575
 C        -7.3741333370       -1.5772378508       -9.0941237796
 C        -8.8217323382       -1.5073299766       -8.5645732585
 O        -9.2554141413       -0.5033149510       -8.1550762141
 C        -9.5741778830       -2.8292652940       -8.6019967101
 C        -8.7737819271       -3.8173994568       -7.7149732428
 O        -8.4323396313       -4.9436194487       -8.0388952001
 C        -8.6675602335       -3.5251348248       -6.1601167462
 C        -8.1570727288       -4.6309649570       -5.1373217177
 C        -6.8579648294       -5.2415073594       -5.6111139805
 O        -6.1722979404       -4.6464055079       -6.4166244456
 C        -6.5854790029       -6.6001582939       -5.0721047250
 C        -6.4989200687       -6.5519682343       -3.5196550015
 O        -7.4514906173       -6.9850745177       -2.8687877239
 C        -5.0706786178       -6.0581137524       -2.8696145126
 C        -5.1918060999       -5.1887028829       -1.6588382294
 C        -6.0988147110       -4.0061712605       -1.8816764026
 O        -6.4644358741       -3.6310024859       -2.9947418823
 C        -6.4256659681       -3.1142689283       -0.5625735660
 C        -5.2947158829       -1.9934262807       -0.8058884807
 O        -4.0956963914       -2.2823369711       -0.5145545384
 C        -5.6491447867       -0.5899180154       -1.2820048169
 C        -4.5323452229        0.3429429629       -1.7326988912
 C        -4.2554843928        1.4254917565       -0.6865740643
 O        -5.2101856182        1.8963624275       -0.1004941197
 C        -2.8122605551        1.9420766247       -0.3440797945
 C        -2.2867110806        2.6175168122       -1.7064051500
 O        -1.9680648566        1.8735790222       -2.6340339002
 C        -2.1733138213        4.1581187132       -1.8753803421
 C        -2.9150727243        3.0130807754        0.7794336848
 C        -1.9124849346        0.7720499874        0.1147145199
 C        -7.8604583569       -2.6465859766       -0.7256233107
 C        -6.2935578035       -3.8114514500        0.7781447028
 C        -7.8587679513       -7.5472554170       -5.3640002838
 C        -5.3363428098       -7.1353715562       -5.7475749612
 C       -11.0251664102       -2.6108997879       -8.0690403764
 C        -9.6874098565       -3.2832578538      -10.0605307677
 C        -4.4645077633        0.8552172682       -6.5766385740
 C        -2.8293700482       -0.1473157438       -8.3205697093
 C         0.7841372420       -1.7679424221       -1.8883285230
 C         2.7660571629       -1.5071941173       -3.3592154674
 C        -0.7658961816       -7.4159426833       -5.4435070201
 C         0.4238849074       -7.4774196342       -7.5468310273
 C        -3.9495655483       -4.6012842665      -12.5914127076
 C        -3.4587479447       -7.1203161944      -12.2216370615
 C         1.3394676747       -2.8586745236      -16.5548793039
 C         0.3734954702       -1.2530414294      -14.8533697981
 C        -5.4627148842       -1.5707978752      -19.9726928211
 C        -4.5060198619       -0.1537221969      -21.8035533440
 C        -6.1646584932        5.8671643079      -19.2253754813
 C        -5.6472646633        6.2202064663      -21.6950539490
 C         0.7598428959        3.1435145737      -17.5652117518
 C         1.7423857265        5.0864068500      -18.8463442791
 H         1.7986768570        2.7529103492      -22.0652671739
 H         3.0703120974        3.6309953396      -21.0526261994
 H         1.6814304520        4.5664330780      -21.6700648355
 H        -0.4196419411        5.9527134176      -20.7791400252
 H        -0.8421244570        6.4289353024      -19.1769008484
 H        -2.6194080681        4.7565077411      -21.0247617709
 H        -2.5201161782        6.4746292727      -21.5375623663
 H        -6.5366596837        3.4337407770      -18.5069817720
 H        -4.8009097314        3.1343399400      -18.3127445235
 H        -6.5256617529        1.3847869621      -20.1798027539
 H        -6.4469200188        1.0802748173      -18.5334751488
 H        -3.2489045019       -2.7113051129      -18.4769750074
 H        -2.8868708377       -1.2297439296      -17.7405335972
 H        -0.4954203721       -1.9145483583      -19.3244244831
 H        -0.8060197428       -3.2054590288      -18.0119288247
 H        -0.0605595419       -3.7363736915      -13.9058837988
 H         0.3730393147       -4.9803867705      -14.9972927888
 H        -1.3099008341       -6.4746637915      -14.4147587472
 H        -2.5180059000       -5.1503403535      -14.5179029266
 H        -1.4693069386       -6.8791424253      -10.1088016590
 H        -2.8897044966       -7.0325663105       -8.9455377701
 H        -1.8400621306       -4.3045517483       -8.6111633177
 H        -0.4656362327       -5.0463370251       -8.7642912663
 H         2.8033921789       -5.5135171815       -6.2523836570
 H         2.3334402127       -6.2013137841       -4.7993331298
 H         2.6334681714       -3.2883334245       -5.6495786133
 H         3.4507846575       -3.9943295584       -4.2715583891
 H        -1.5057497457       -2.0983865203       -3.6670428483
 H        -1.0416878626       -2.8239475290       -5.0883249277
 H        -1.5200113766       -0.0408770575       -5.8789896792
 H        -2.6456110453       -0.3525955328       -4.4190610103
 H        -6.5010705527        0.3316610106       -8.3679710082
 H        -6.8856611919       -0.8898385778       -7.1286460828
 H        -6.9973033403       -2.5855315450       -8.9136838612
 H        -7.3687393426       -1.1836632300      -10.1240792635
 H        -9.6278873925       -3.2962332182       -5.8129641330
 H        -8.0706806627       -2.6865696303       -6.0855868645
 H        -8.9280523878       -5.3631190034       -5.0286619975
 H        -8.0587326681       -4.1049260461       -4.2256586644
 H        -4.6329095232       -5.5917441431       -3.7030376833
 H        -4.5724638973       -6.9095345694       -2.4930901871
 H        -4.1920944223       -4.7873747712       -1.3823308765
 H        -5.4574252717       -5.9089358724       -0.8891995141
 H        -6.1446953154       -0.1258937226       -0.4279545709
 H        -6.3339500970       -0.6290897008       -2.1257300154
 H        -5.0147655072        0.8873360679       -2.5634616045
 H        -3.5738062388       -0.0711806817       -2.1074922245
 H        -1.3194554343        4.7327759745       -1.4818032232
 H        -3.1098649917        4.6141969430       -1.6136302622
 H        -2.1796982043        4.3655797980       -2.9104769508
 H        -2.1006970638        3.6978734036        0.7540765807
 H        -2.8140410080        2.5630735320        1.8339694608
 H        -3.7782117904        3.6902282585        0.6300161354
 H        -2.2751292323        0.4314948865        1.0804942971
 H        -0.8696227526        0.9743979845        0.1397233936
 H        -1.9794499440       -0.0761220100       -0.5167165797
 H        -8.6441101903       -3.4018526241       -0.8662571895
 H        -8.0410191199       -1.9814645211       -1.6268768142
 H        -8.1913938068       -2.0879432679        0.0733421157
 H        -6.6868418051       -4.8079394548        0.7625052319
 H        -6.8126492719       -3.1672727474        1.5424096287
 H        -5.2236053327       -3.9019117349        1.0404185117
 H        -8.7443753528       -7.3032745648       -4.7115740684
 H        -7.6249145972       -8.6084515956       -5.2229931792
 H        -8.2783867687       -7.5111329764       -6.3616412440
 H        -5.5092753248       -6.9821070737       -6.7832031971
 H        -5.0609444166       -8.1197092903       -5.4706966591
 H        -4.3914933066       -6.5795864069       -5.4453081797
 H       -11.4875777851       -3.6523358025       -8.1036679274
 H       -11.5861270759       -2.0444260069       -8.8000408170
 H       -11.0160453578       -1.9665638520       -7.1757741902
 H        -8.7933912794       -3.1869957154      -10.6510355882
 H       -10.3341903182       -2.5823440513      -10.5942718006
 H       -10.0487065596       -4.2517481236      -10.0489991208
 H        -4.4936201400        1.5039134614       -7.4095699220
 H        -3.7045305498        1.0963495017       -5.9659770413
 H        -5.2873985361        0.7802770552       -5.8447976152
 H        -1.9382678749        0.3857051531       -8.0954736709
 H        -3.2509831905        0.4108841143       -9.2033968024
 H        -2.4446773963       -1.1293972738       -8.7061984187
 H         1.5385300246       -1.9707191021       -1.1976775120
 H        -0.0181829002       -2.4986985666       -1.6575022791
 H         0.5047964191       -0.7867790010       -1.8328330195
 H         3.1666021784       -1.3883246612       -4.2976022824
 H         3.3623773300       -2.0175016832       -2.6233546199
 H         2.8056603608       -0.4622607824       -2.9536926617
 H        -1.3214929730       -6.7819240280       -4.8082909195
 H         0.0056209159       -7.8697362514       -4.8746753501
 H        -1.4358908946       -8.1554850340       -5.9237987214
 H         1.1830559647       -6.8989288208       -8.2244670769
 H        -0.3023031862       -8.1390125068       -8.0692866259
 H         0.9809730750       -8.1681075859       -7.0273959302
 H        -4.9266197856       -4.6739221837      -12.0236738303
 H        -4.1004911960       -4.8229539699      -13.6336424782
 H        -3.5697892823       -3.6157924262      -12.4357862811
 H        -4.4664693926       -7.3106185329      -11.8421032845
 H        -2.6559168326       -7.6507668189      -11.6655003642
 H        -3.5721819165       -7.5554649544      -13.2409059440
 H         1.7013730633       -3.6617859686      -15.8667100269
 H         1.9848451487       -2.0244812848      -16.8028232109
 H         1.3258913507       -3.3573274221      -17.4542994007
 H         1.1228215217       -0.4326178265      -15.0938530526
 H         0.7846595600       -1.9718977153      -14.1069451239
 H        -0.4508676263       -0.6871310224      -14.4236226966
 H        -5.4379923431       -2.3713444687      -20.7348968441
 H        -6.4036470805       -1.1403055693      -19.8727863160
 H        -5.1100327035       -2.0492988982      -18.9840893235
 H        -5.2211338842        0.6994016866      -22.1106802436
 H        -4.6863788097       -1.1280874975      -22.3046273610
 H        -3.5392689710        0.3132738646      -22.1226095613
 H        -5.7320782602        5.6155205403      -18.2638998454
 H        -7.1239813444        5.4445393508      -19.4118117111
 H        -6.3330128221        6.8773563621      -19.1260734814
 H        -5.4157534039        5.7609100246      -22.6941437995
 H        -5.2369517281        7.2762265983      -21.6410655911
 H        -6.7448907350        6.4488048130      -21.6459884804
 H        -0.2171019154        3.0301231530      -17.1095912373
 H         1.3338704421        3.7929005131      -16.8946514103
 H         1.1857407670        2.2000719184      -17.7695195533
 H         1.8223130708        5.6032483267      -19.8024031750
 H         2.6515731849        4.6424577255      -18.4864047406
 H         1.2813546283        5.7872550229      -18.2041629894
 Na       -1.1225249400        1.0944166280      -19.1035845589
 Na       -4.2204625670       -4.2692890911       -7.2595934767
