232

 C         2.0705078178        4.0902006749      -21.3005491055
 C         1.2259004946        3.3130051232      -20.2598466671
 O         0.9625782281        2.1110759553      -20.4728555569
 C         0.6347851653        4.0903728915      -19.0139731318
 C        -0.8680958816        4.3248890373      -19.3858504410
 O        -1.6959755707        3.4219826776      -19.4498503863
 C        -1.3206117406        5.7346691969      -19.7749352114
 C        -2.6679227389        5.8210602924      -20.5873372836
 C        -3.9141756431        6.0209800337      -19.6639283362
 O        -3.7790399122        6.4849940911      -18.5716179761
 C        -5.2318656552        5.4309795139      -20.2343601743
 C        -5.1037619211        3.8457681569      -20.2800760766
 O        -4.6143338701        3.1588595509      -21.2428050683
 C        -5.7843951437        3.0868428191      -19.1582302505
 C        -6.0057215576        1.6068532560      -19.5849796313
 C        -4.6403046299        0.6548325340      -19.4222922407
 O        -3.7519108097        1.1084923258      -18.7059253460
 C        -4.5464767077       -0.6587676025      -20.1825544192
 C        -2.9814288958       -1.2607274480      -20.0178582128
 O        -2.1002737735       -0.8903332762      -20.7256326130
 C        -2.6549633541       -2.1522343394      -18.7644231810
 C        -1.1221326002       -2.1727664471      -18.5355485855
 C        -0.6430439552       -1.2898511731      -17.3825311637
 O        -0.7237189165       -0.0832706490      -17.4778619622
 C        -0.0572378301       -2.0668088542      -16.0643987662
 C        -0.9289603258       -3.3034246489      -15.6963222544
 O        -1.9929006909       -3.5317206932      -16.2982553090
 C        -0.5113718935       -4.3434105985      -14.6396036497
 C        -1.7583098405       -4.9845201052      -14.1265695652
 C        -1.9603886205       -4.9892790639      -12.5071706068
 O        -1.1310737918       -4.5229720150      -11.8092716063
 C        -3.2872690712       -5.5521582214      -12.0160084806
 C        -3.1408422105       -5.4959141053      -10.4242113415
 O        -3.8377782836       -4.7042357896       -9.8244959177
 C        -2.0276072545       -6.3131154226       -9.7201292067
 C        -1.2254156924       -5.5359143099       -8.6280276456
 C        -1.2262376020       -6.0132783814       -7.2107769286
 O        -2.2264153940       -5.9279126924       -6.5195053758
 C         0.0753633509       -6.4122343669       -6.4964807181
 C         0.8075098123       -5.0264418423       -5.9472957377
 O         0.2648062896       -3.9905672182       -6.1731081207
 C         1.9875874338       -5.2477790915       -4.9877385542
 C         2.4555041705       -3.9361744634       -4.3530394142
 C         1.3090448303       -3.5270360539       -3.4048990268
 O         0.6439183911       -4.4293609194       -2.9122264075
 C         1.0674857154       -2.0662496747       -3.1185426352
 C         0.1528894879       -1.4422856262       -4.2832582098
 O         0.6619098066       -0.7948685236       -5.1643788517
 C        -1.3452017912       -1.8487081479       -4.3666832440
 C        -2.0478152442       -0.9207557973       -5.4259073058
 C        -3.0746474265       -1.6993605766       -6.2523685585
 O        -3.3737325190       -2.8243484473       -6.1021195107
 C        -3.6949490550       -0.6176400972       -7.3216026532
 C        -4.9536764715       -1.2616083154       -8.0158340330
 O        -4.7606717724       -2.3630930066       -8.5090929600
 C        -6.4320727853       -0.6293063021       -8.0089011222
 C        -7.4184879612       -1.3480670998       -9.0137413520
 C        -8.9659274038       -1.3443289268       -8.3348047151
 O        -9.3695809532       -0.4157877395       -7.7639431436
 C        -9.6568013144       -2.7301517725       -8.3894954966
 C        -8.9058887267       -3.7849063527       -7.5695329953
 O        -8.5048429139       -4.8945980207       -7.9364507478
 C        -8.5141134825       -3.5785952887       -6.1077671733
 C        -8.1872363802       -4.9515796195       -5.4564928712
 C        -6.7748494210       -5.3907649890       -5.8607669480
 O        -6.0684968848       -4.6512012413       -6.4995013585
 C        -6.3211906655       -6.7738206180       -5.2179583119
 C        -6.3331694770       -6.3831668514       -3.7219361512
 O        -7.3438623650       -6.4725852504       -3.0513549955
 C        -5.0490319270       -5.4745961927       -3.2939721163
 C        -5.2428438345       -4.9785879137       -1.8847944489
 C        -6.3891286823       -3.9505372790       -1.7370718710
 O        -7.0709415601       -3.6590762054       -2.7230689425
 C        -6.3570816239       -2.9943380476       -0.5790354799
 C        -5.2492818184       -1.9103545279       -1.0518326114
 O        -4.0341754284       -2.2875694034       -1.1301861469
 C        -5.6507984244       -0.5354533033       -1.5394217081
 C        -4.4673158738        0.3190066901       -1.8344659710
 C        -4.0915918197        1.2273970364       -0.5372293085
 O        -4.8421846792        1.4440925922        0.3408586565
 C        -2.5797905192        1.7569947215       -0.4118307864
 C        -2.1485245492        2.3597472867       -1.7362475072
 O        -2.3574329515        1.7223079602       -2.7614972517
 C        -1.5349443031        3.7918825660       -1.8302975740
 C        -2.4838764661        2.7433832694        0.7806092286
 C        -1.7438288287        0.5320335831       -0.1599783085
 C        -7.6911680364       -2.3457962645       -0.2530131939
 C        -5.7664785552       -3.5990626543        0.7831288508
 C        -7.4876951479       -7.7599248414       -5.3082791824
 C        -4.9706737136       -7.2300610139       -5.8783027947
 C       -11.0851604962       -2.6267648309       -7.8313653434
 C        -9.7394088586       -3.3469873376       -9.8349004285
 C        -3.9044964424        0.7595052024       -6.6452371013
 C        -2.6145302215       -0.6148241388       -8.3529687997
 C         0.3210116356       -1.9439375591       -1.7350599049
 C         2.3622523667       -1.2259194509       -3.0010413047
 C        -0.2369126445       -7.3106176173       -5.2742163176
 C         1.1005743233       -7.1402478918       -7.3596522913
 C        -4.3875295810       -4.4633923995      -12.4088322458
 C        -3.7014808297       -6.9950739209      -12.4931932663
 C         1.4087427646       -2.6339955662      -16.2888038758
 C         0.0444067893       -1.0159926497      -14.8784843273
 C        -5.6178905685       -1.6332316256      -19.5144392967
 C        -4.9159212844       -0.4941353074      -21.6450639528
 C        -6.3711525392        5.8885614228      -19.2357788903
 C        -5.5228973582        6.0452633163      -21.5744248855
 C         0.6468945726        3.3107646569      -17.7110736604
 C         1.3826206317        5.4559484858      -18.8050570385
 H         2.5653576813        3.2950416286      -21.8740380744
 H         2.7857221215        4.7703457665      -20.9293184689
 H         1.3615752289        4.6613183096      -21.8376318877
 H        -0.4874882300        6.2173354870      -20.3529361135
 H        -1.4686918816        6.4941973144      -19.0565295780
 H        -2.8870063288        4.8142628163      -21.0225125656
 H        -2.4411715765        6.5568785725      -21.3749632953
 H        -6.7512861471        3.5314881730      -18.8115094158
 H        -5.0791673659        3.0911942089      -18.3492290176
 H        -6.2502830658        1.7179545882      -20.6280729272
 H        -6.8419951192        1.1054527984      -19.1227340248
 H        -3.1050176724       -3.1851724452      -18.7349161792
 H        -3.1037166218       -1.5310401277      -18.0242166459
 H        -0.5784801363       -1.9171249741      -19.4230579340
 H        -0.8217227337       -3.2395193606      -18.3610987696
 H         0.1148381164       -4.0612196689      -13.8221453459
 H        -0.0211485157       -5.0543523779      -15.3147774523
 H        -1.6804892337       -6.0757132174      -14.2773285672
 H        -2.7008191604       -4.7147600100      -14.6060611104
 H        -1.3919977550       -6.8390627506      -10.4846469860
 H        -2.5896321460       -7.1556560194       -9.2801072177
 H        -1.6850289248       -4.5374983883       -8.4782154479
 H        -0.2327435915       -5.2807777228       -8.8486581575
 H         2.8093992106       -5.7018253264       -5.5192941004
 H         1.7207923177       -5.8680889796       -4.2032648024
 H         2.7272312169       -3.1887437678       -5.1054973284
 H         3.3982872588       -4.1347521688       -3.7718708535
 H        -1.8686471223       -1.8781649806       -3.4334990044
 H        -1.3236298839       -2.8583041553       -4.6436013765
 H        -1.3645334454       -0.6961865089       -6.2676705445
 H        -2.4673318578       -0.0176796945       -4.9644134150
 H        -6.2697590112        0.4688444012       -8.2679829589
 H        -6.9107896780       -0.6703252259       -6.9521143161
 H        -7.0200784126       -2.4458686657       -9.2032900363
 H        -7.3178767132       -0.8096956867       -9.9443234411
 H        -9.2746435238       -3.0032434753       -5.5778967890
 H        -7.5754734617       -3.0125042513       -6.1108148683
 H        -8.9322314141       -5.6938978791       -5.7844470981
 H        -8.2669716715       -4.8437301765       -4.3876300886
 H        -4.9964088248       -4.6168806405       -3.9358106259
 H        -4.1819306007       -6.0838370458       -3.3353420935
 H        -4.1948097976       -4.6740319047       -1.5979866418
 H        -5.4010058277       -5.7716859659       -1.0942370938
 H        -6.2270936691       -0.0779515593       -0.7362597002
 H        -6.2759165690       -0.6416090095       -2.4281012240
 H        -4.6941565074        1.1250887710       -2.5582224430
 H        -3.5579990401       -0.1523890522       -2.2533520449
 H        -0.9332294715        4.2690230432       -1.0294158740
 H        -2.4404523663        4.4153944004       -1.8601302844
 H        -0.9941364163        4.0341494110       -2.7371692105
 H        -1.4471480107        3.1282873587        0.9263741917
 H        -3.0624585134        2.3105340524        1.6293292001
 H        -3.1399418512        3.6313371524        0.6020239024
 H        -2.2231985646       -0.0854631039        0.6626129026
 H        -0.6909659626        0.7220168385        0.1561565783
 H        -1.5877931342       -0.0357136167       -1.0554821111
 H        -8.3811342525       -2.9201770104        0.2409536327
 H        -8.2933159050       -2.1158982866       -1.1719456473
 H        -7.5902140622       -1.4609110649        0.2950661828
 H        -6.3153217672       -4.4490280209        0.9804338069
 H        -5.9569535429       -2.9067350744        1.5741225400
 H        -4.7502413672       -3.8780372736        0.6941494301
 H        -8.3848431153       -7.4875464889       -4.7620370586
 H        -7.2327308880       -8.6927823371       -4.8834826099
 H        -7.8352808986       -8.0581701791       -6.3297303940
 H        -5.2277597600       -7.4585395708       -6.9095885907
 H        -4.6139238695       -8.2142965558       -5.5213891602
 H        -4.1250853470       -6.4985437185       -5.9031538365
 H       -11.4189318855       -3.7006911479       -7.6636206156
 H       -11.7717706969       -2.1522952244       -8.5354954474
 H       -11.1620888591       -1.9430614515       -6.9558117155
 H        -8.7588216530       -3.6569398692      -10.1368967411
 H       -10.0268863447       -2.4956205918      -10.5422374438
 H       -10.4294816229       -4.1738356927       -9.8798421851
 H        -4.5281003381        1.3083804258       -7.2459873584
 H        -2.9556341979        1.2377654821       -6.6844222079
 H        -4.2526988634        0.5765020495       -5.6269263812
 H        -1.6844274370       -0.0656605479       -8.1633997534
 H        -2.8654108675       -0.1132246349       -9.2877859734
 H        -2.3638551185       -1.6523418576       -8.6593063080
 H         0.9248591508       -2.4411236651       -0.9882668269
 H        -0.6694181246       -2.3830037277       -1.8307477198
 H         0.2528978487       -0.9154400621       -1.5177285032
 H         2.9739909217       -1.2062521106       -3.9178910811
 H         2.9237926603       -1.4861366697       -2.1513187196
 H         2.0694456234       -0.1798665851       -2.8824141826
 H        -0.6423812272       -6.7065875103       -4.5005318257
 H         0.6182816967       -7.8557046383       -4.9220985917
 H        -1.0334052752       -8.0485832694       -5.6308303786
 H         1.4468287068       -6.5510770152       -8.2396937916
 H         0.6443144538       -8.1808506248       -7.6767225048
 H         1.8456481749       -7.3834753948       -6.6436564788
 H        -5.3171466111       -4.7684045920      -11.9209364734
 H        -4.4795068462       -4.5966272640      -13.5143822114
 H        -4.2011676076       -3.3600413558      -12.1931312837
 H        -4.6310918455       -7.2608752188      -11.9851668009
 H        -2.8172050094       -7.6638185447      -12.2782410011
 H        -3.7174857135       -7.1008487692      -13.6228398372
 H         2.0289193012       -3.0254735313      -15.4046571704
 H         1.9288623706       -1.8934922243      -16.9524891198
 H         1.2900650924       -3.4579836622      -16.9822364016
 H         0.2277169243       -0.0161079648      -15.2310061041
 H         0.6689769248       -1.3609022210      -14.0981687180
 H        -0.8645214967       -0.9973220889      -14.3557393102
 H        -5.4920836560       -2.6069213626      -19.9246896816
 H        -6.5764228901       -1.3717268791      -19.7760771180
 H        -5.5320386796       -1.7180252152      -18.4125793847
 H        -5.9308885420       -0.6566481507      -21.8741182568
 H        -4.3529295359       -1.2851128520      -22.2599562498
 H        -4.7822811112        0.6125005011      -22.0177707044
 H        -6.2387972659        5.5299152424      -18.2339204675
 H        -7.2942255305        5.4315069768      -19.5146165222
 H        -6.4931238273        6.8993063737      -19.2046883777
 H        -4.5887145763        6.2228516473      -22.1981215754
 H        -5.8691285268        7.0901933944      -21.4837897364
 H        -6.0290480429        5.3118687042      -22.1231134691
 H         0.5284363720        2.2343119920      -17.9860810389
 H        -0.2610428238        3.5512789591      -17.0284669313
 H         1.5830506437        3.5594030971      -17.2195400543
 H         1.4783237344        6.0309815473      -19.7439413214
 H         2.2674933797        5.2125689053      -18.1982975736
 H         0.7762279222        6.1702964568      -18.2235854469
 Na       -1.2008127908        1.1120955198      -19.5263279368
 Na       -3.9888677720       -4.4902024881       -7.4257508257
