232

 C         2.0834612397        4.0743481835      -21.1990256291
 C         1.2180563326        3.3492352525      -20.2257715326
 O         0.8295327145        2.1773077311      -20.3924173688
 C         0.6331113763        4.1616519465      -19.0462396730
 C        -0.8610594837        4.3060579948      -19.5365281219
 O        -1.5957964793        3.3446114377      -19.4346852683
 C        -1.3167106770        5.7527750021      -19.8879160249
 C        -2.6916494142        5.7732314864      -20.5187260539
 C        -3.9258342477        5.8203431089      -19.5820273351
 O        -3.8869457755        6.3906168849      -18.5200798815
 C        -5.3712503557        5.3991396763      -20.2688861482
 C        -5.2546662426        3.8652309919      -20.2394259642
 O        -4.4963879606        3.3589687799      -21.1056476905
 C        -5.7738736801        2.9813101662      -19.1237090968
 C        -6.0071314784        1.5474079282      -19.5583379912
 C        -4.7248433173        0.7721302603      -19.4889789380
 O        -3.7553534946        1.1886864503      -18.8071519767
 C        -4.5637215875       -0.7607025563      -20.1922336703
 C        -3.0504493305       -1.2149170654      -19.8759914994
 O        -2.1362261813       -0.8413061655      -20.6951618983
 C        -2.6047264562       -2.2452571079      -18.8611788228
 C        -1.0453838240       -2.2413174647      -18.6040937861
 C        -0.6530596923       -1.3597565050      -17.3894802412
 O        -0.8072985940       -0.1629604891      -17.3767166883
 C        -0.1352239167       -2.0525398319      -16.1460628190
 C        -0.9848233142       -3.3239319564      -15.7906489354
 O        -2.0016965535       -3.5394298730      -16.4219863381
 C        -0.5836414108       -4.2213584736      -14.5569355626
 C        -1.8166294444       -5.0356599593      -14.0738441073
 C        -1.9570828305       -4.9269682567      -12.5618864248
 O        -1.1279937815       -4.3145171459      -11.9115979390
 C        -3.2693035355       -5.5287558472      -11.9567837305
 C        -3.1322343816       -5.4426993907      -10.3619923510
 O        -3.8231067092       -4.7131063177       -9.6774094333
 C        -2.0718435532       -6.3708288207       -9.7504783528
 C        -1.1373581768       -5.5560291759       -8.8212656155
 C        -1.1775809660       -5.9806975110       -7.3406416880
 O        -2.1697363437       -6.1304617655       -6.7473748414
 C         0.1503229988       -6.3773244050       -6.4588192021
 C         0.7723345240       -5.0339190398       -5.8562101042
 O         0.3928610163       -3.9226593013       -6.1622970817
 C         2.0820093228       -5.1770130502       -5.0398662433
 C         2.3747942576       -3.8829626429       -4.2923141254
 C         1.2633190923       -3.5679177066       -3.3296951941
 O         0.5270728089       -4.4219334518       -2.8933930429
 C         0.9747054103       -1.9113148852       -2.9775575336
 C         0.1900031235       -1.4947658646       -4.2244396636
 O         0.7339170361       -0.9346937421       -5.1551266719
 C        -1.3050455855       -1.9141836934       -4.3284550556
 C        -2.0652347536       -0.9596254247       -5.2980422432
 C        -3.0362244407       -1.6126424223       -6.2395805291
 O        -3.2720826929       -2.8278586792       -6.2677699867
 C        -3.6779675863       -0.6974557483       -7.3617141821
 C        -4.9795126398       -1.3428104533       -8.0089313508
 O        -4.9287793069       -2.4134472641       -8.4687604245
 C        -6.3690592669       -0.6229235539       -7.9996382622
 C        -7.4145534345       -1.3517587400       -8.8195236227
 C        -8.7965012274       -1.4788777169       -8.2636274008
 O        -9.2925012714       -0.4888972405       -7.7135080441
 C        -9.7291901836       -2.7935671128       -8.3597080589
 C        -8.9319606289       -3.8689540584       -7.6131590602
 O        -8.5731288575       -4.8561129961       -8.2468660913
 C        -8.6040284104       -3.5817701284       -6.0877330927
 C        -8.1521665391       -4.8411010320       -5.4603334588
 C        -6.7913136962       -5.3881808966       -5.8827858634
 O        -6.0330942446       -4.6764938868       -6.5742876088
 C        -6.3981697765       -6.7455043365       -5.2985237358
 C        -6.3136781780       -6.3475359991       -3.7103212920
 O        -7.1604841474       -6.6745826937       -2.9616980838
 C        -5.0869409401       -5.4680687979       -3.3150146433
 C        -5.2913047188       -4.8827578797       -1.8957599164
 C        -6.3388984909       -3.7613456564       -1.7960735654
 O        -7.2432373800       -3.5737393842       -2.5788128100
 C        -6.1874416900       -2.8455391982       -0.5176430233
 C        -5.1297323695       -1.8964174309       -1.0192077405
 O        -4.0129115126       -2.2987122780       -1.2156531763
 C        -5.6674008192       -0.5522248802       -1.4842969897
 C        -4.5451162470        0.4414538291       -1.8415708958
 C        -3.9559290117        1.2107380168       -0.5844211071
 O        -4.7408063240        1.2499565211        0.3575040709
 C        -2.5250404621        1.6524546125       -0.4301813461
 C        -2.1619415446        2.3901025476       -1.8012921416
 O        -2.4177101028        1.7658838495       -2.7958112745
 C        -1.4481293010        3.7113088846       -1.8641081470
 C        -2.4140045909        2.6990778037        0.7664945810
 C        -1.7693143512        0.3879044058       -0.1049952738
 C        -7.5733608889       -2.2829548841       -0.2849747179
 C        -5.6469169693       -3.6359006327        0.8049138838
 C        -7.3490095379       -7.9030585211       -5.2897549142
 C        -5.0120938629       -7.2164796373       -5.7575030097
 C       -11.1544745697       -2.5531612187       -7.7543288352
 C        -9.7856612907       -3.1527796494       -9.9546757987
 C        -3.8571730045        0.7869423884       -6.7393920012
 C        -2.5184096279       -0.6485781166       -8.4060866474
 C         0.1860520109       -1.8075348693       -1.6279358486
 C         2.3196105057       -1.1950992488       -2.8181301394
 C        -0.3623947448       -7.2778416493       -5.3314998623
 C         1.2087002102       -7.1375410247       -7.4744177160
 C        -4.3737620921       -4.5328955022      -12.3634345862
 C        -3.5960443371       -6.9110989056      -12.3714016466
 C         1.3623409590       -2.5575971010      -16.2110358171
 C        -0.0372923790       -0.9820276285      -15.0358577179
 C        -5.5064328822       -1.7215596850      -19.4607253351
 C        -4.9711279525       -0.5516257263      -21.6664922201
 C        -6.4585751291        6.0028491125      -19.3291448399
 C        -5.6109839712        6.0294200263      -21.6253505735
 C         0.6381933230        3.2644800048      -17.7339043106
 C         1.3569022592        5.5279745316      -18.8083864814
 H         2.5418355082        3.3891026164      -21.9162836872
 H         2.8405060698        4.6362915856      -20.6450031531
 H         1.3641249486        4.8639479730      -21.5750372784
 H        -0.4915425845        6.3159666606      -20.4838957826
 H        -1.4904718110        6.5207709277      -19.1458324024
 H        -2.8253091303        5.0504551144      -21.3605282739
 H        -2.7411095958        6.7341422595      -20.9091268568
 H        -6.7597879527        3.3738764467      -18.8400975044
 H        -5.0774580354        3.0002005908      -18.2508885726
 H        -6.5195547014        1.6305077011      -20.5248996456
 H        -6.6170984905        0.9444229011      -18.8494912155
 H        -2.8573760205       -3.1279702366      -19.4133823120
 H        -3.1789582582       -2.1602248871      -17.9558137313
 H        -0.5708433854       -1.7533504902      -19.5285839485
 H        -0.6404204871       -3.2424897204      -18.6389915873
 H        -0.4089941410       -3.5598140977      -13.7402469948
 H         0.2946586085       -4.7799993163      -14.7947911029
 H        -1.9563099492       -6.1644509961      -14.2982796537
 H        -2.7718766032       -4.5944752760      -14.4037200584
 H        -1.5231122239       -6.8502394163      -10.6131302347
 H        -2.4539890593       -7.2605335608       -9.2127134459
 H        -1.4124058596       -4.4737186585       -8.7151602462
 H        -0.0344024949       -5.5522196873       -9.1502487059
 H         2.8778326960       -5.3221654104       -5.7262846734
 H         2.0446402131       -5.9580349126       -4.3694049668
 H         2.5046422879       -3.0768763920       -4.9991673067
 H         3.3005951283       -3.9143971886       -3.7225940363
 H        -1.8679293313       -1.7471146340       -3.3845105266
 H        -1.3573700083       -2.9308339288       -4.4558383495
 H        -1.5050947487       -0.3844794668       -6.0680359964
 H        -2.6507254570       -0.3324626539       -4.6367334507
 H        -6.2202842272        0.4887641875       -8.1382084108
 H        -6.7397161961       -0.7429879039       -6.9756922715
 H        -7.0337715508       -2.3389309979       -9.1450028217
 H        -7.5111630598       -0.7996169035       -9.7093603967
 H        -9.4919867192       -3.2562623139       -5.6223644955
 H        -7.9150372476       -2.7946157870       -6.0270008273
 H        -8.9290313906       -5.5488152524       -5.6607973871
 H        -8.1534848219       -4.7137410916       -4.3867675579
 H        -5.0435190305       -4.7035652560       -4.0726960779
 H        -4.2731525434       -6.1373529605       -3.4116774671
 H        -4.3361200248       -4.6108593176       -1.5135377618
 H        -5.5952484855       -5.6265260219       -1.1267462413
 H        -6.2977980046       -0.1789438185       -0.6816192678
 H        -6.3096563178       -0.7238916091       -2.3355296813
 H        -4.7872108513        1.2465191207       -2.6101651399
 H        -3.6743303781       -0.0253155194       -2.2438622420
 H        -0.8248976383        3.9023889299       -1.0295650130
 H        -2.0362644620        4.6335005246       -1.8758085427
 H        -0.7734220767        3.7457991794       -2.7383952986
 H        -1.3339080202        3.0865101616        0.6547214170
 H        -2.6906230425        2.2723725295        1.6756238128
 H        -3.1072505355        3.5479732813        0.7481201868
 H        -2.2317896206       -0.0268374822        0.7688488969
 H        -0.7152133163        0.5390694691        0.1807114719
 H        -1.7590172945       -0.3347258136       -0.9148553334
 H        -8.3274068565       -3.0111982779       -0.1383545188
 H        -7.9818107044       -1.7775748356       -1.1302463036
 H        -7.6741322800       -1.5541013645        0.5887861765
 H        -6.0628649021       -4.6638005789        0.8235809163
 H        -5.9961092425       -3.1238206806        1.6628201101
 H        -4.5758862551       -3.6607335440        0.7436479315
 H        -8.3085786814       -7.7720758580       -4.8378151907
 H        -6.9485613929       -8.7895206556       -4.8021834545
 H        -7.5755754605       -8.2650349411       -6.3467224368
 H        -4.9087711111       -7.2089851767       -6.8512165911
 H        -4.8414806228       -8.3136517181       -5.5534320347
 H        -4.2443557606       -6.5958812903       -5.4116780370
 H       -11.7336344280       -3.4644040812       -7.8210985997
 H       -11.6761535282       -1.7013170618       -8.3096410292
 H       -11.1044148094       -2.1576737498       -6.6894246047
 H        -8.9144400834       -3.6463749984      -10.2485332317
 H        -9.9066361666       -2.2280445813      -10.5187165983
 H       -10.6385361189       -3.7999875964      -10.1625389504
 H        -4.3610699531        1.4497619613       -7.3989263900
 H        -2.8018740837        1.1962890873       -6.6317862896
 H        -4.3789026952        0.6248555616       -5.8418444860
 H        -1.6007470168       -0.0203977566       -8.1125677432
 H        -2.7940460485       -0.0749063511       -9.2525353837
 H        -2.1794514580       -1.5834279122       -8.8576449282
 H         0.8098265678       -2.2854419174       -0.9126991283
 H        -0.7201775085       -2.2124486987       -1.7553836926
 H         0.1271343766       -0.7633264673       -1.3962620494
 H         2.9539957722       -1.4177059892       -3.7651879465
 H         2.8614233622       -1.5932985403       -1.9750760795
 H         2.2645335597       -0.1448841319       -2.7680913740
 H        -0.6733660763       -6.7188085875       -4.4669323622
 H         0.4178988427       -7.9628144381       -5.0395599772
 H        -1.1995066823       -7.8493186122       -5.7043249170
 H         1.4656137230       -6.4460094954       -8.1846617667
 H         0.6023167151       -7.9048771858       -7.9756399696
 H         2.0988018498       -7.6455995832       -6.9476812989
 H        -5.2621536038       -4.5798319136      -11.7914233383
 H        -4.5601168046       -4.7298497337      -13.4389295330
 H        -3.9587700049       -3.4698033928      -12.3180428382
 H        -4.1767952188       -7.4421038088      -11.5838699519
 H        -2.6444609083       -7.4195848648      -12.6732363242
 H        -4.0704185873       -6.8846021816      -13.3971043833
 H         1.8692069090       -2.6329931504      -15.2696111057
 H         1.9586927742       -1.9510358777      -16.8865045639
 H         1.2771605398       -3.5876515259      -16.7506918214
 H         0.4930993387       -0.1398083167      -15.4568389665
 H         0.3179724648       -1.3128070151      -14.0598736868
 H        -1.0574256120       -0.6450968286      -14.7723878766
 H        -5.2366003121       -2.7809262770      -19.3601763934
 H        -6.5752186202       -1.7787171712      -19.9417503129
 H        -5.6302732016       -1.3601415125      -18.4607172745
 H        -6.0495499336       -0.6675870428      -21.8202488953
 H        -4.5485592942       -1.4196887900      -22.2737753226
 H        -4.7483617669        0.4508268218      -22.0898923721
 H        -6.2813242646        5.9156739442      -18.3211994851
 H        -7.3619452147        5.4827311087      -19.4150797901
 H        -6.6215351778        7.0415094518      -19.6167473651
 H        -4.8068132490        5.8026826837      -22.3684403849
 H        -5.5006287535        7.1042715750      -21.5582032675
 H        -6.4649022581        5.5039547341      -22.0467491079
 H         0.7341736291        2.2333965771      -18.0785681961
 H        -0.3031539802        3.3095078230      -17.1839631884
 H         1.4596884941        3.6170763088      -17.0848131562
 H         1.4225673382        6.1208341797      -19.7126937220
 H         2.2924483361        5.3272286458      -18.2807755087
 H         0.7568281791        6.1527222840      -18.1177419489
 Na       -1.2085200073        1.1497737047      -19.5828437646
 Na       -4.0124771321       -4.5249182486       -7.3781971058
