232

 C         2.2865923160        3.7704663104      -20.9162784173
 C         1.0849347161        3.3089737799      -20.1691769987
 O         0.6714852517        2.2110733046      -20.4609731307
 C         0.3756677788        4.2620017175      -19.0389808963
 C        -1.0847706340        4.4658232631      -19.4838675575
 O        -1.8585833769        3.5806808693      -19.5423464874
 C        -1.5120112222        5.9614411878      -19.7335583068
 C        -2.8139557949        5.9809738235      -20.5230198500
 C        -4.0593088437        5.7082251468      -19.6526626099
 O        -3.9677679605        5.7424838342      -18.4459212467
 C        -5.4843771392        5.1840716178      -20.1669417933
 C        -5.4555321936        3.6007333847      -20.2751063355
 O        -4.7746112979        3.0243204690      -21.0895711148
 C        -6.0936570080        2.8272117762      -19.1254146395
 C        -6.0401931455        1.3239198453      -19.4232141363
 C        -4.6242030759        0.8903243275      -19.6137042086
 O        -3.7175368084        1.5598806652      -19.1346950061
 C        -4.3849646216       -0.6250072196      -20.1174284685
 C        -2.8896979835       -1.1868764655      -20.1883490005
 O        -1.9771537420       -0.4095438294      -20.6102714342
 C        -2.4397705458       -2.4643979580      -19.5149467006
 C        -0.9916858152       -2.2772644961      -19.0358457631
 C        -0.8464571735       -1.3638824830      -17.8155851038
 O        -0.8965814221       -0.1512102689      -17.7903523010
 C        -0.3838279347       -2.0097925681      -16.3342419145
 C        -1.2128276403       -3.2614280659      -15.8996302578
 O        -2.2319217819       -3.6395920618      -16.3871280958
 C        -0.6647955160       -4.0460438721      -14.6197030075
 C        -1.7259574912       -4.8758836938      -13.9484536425
 C        -2.1197993581       -4.6006154409      -12.5751504492
 O        -1.4536258110       -3.8833508184      -11.8123855483
 C        -3.2818650038       -5.4872570410      -11.8920639627
 C        -2.8990537241       -5.5697644956      -10.3674151701
 O        -3.6261322281       -5.0316670082       -9.5389719283
 C        -1.6389090261       -6.2581049445       -9.9979760229
 C        -0.7462759114       -5.5612314061       -8.9097254015
 C        -0.9935512135       -6.0129952448       -7.4689396355
 O        -2.0521347300       -5.8789851824       -6.9595725477
 C         0.3435213302       -6.4071271656       -6.6253412878
 C         0.8131624893       -4.9802462962       -6.0587892190
 O         0.2065944883       -3.9579628769       -6.4412798663
 C         1.9504479554       -5.1432169454       -5.0278659925
 C         2.2858215700       -3.9238444464       -4.2180349280
 C         1.1203255479       -3.6198069842       -3.2943114234
 O         0.3946290577       -4.4851204946       -2.9010714996
 C         0.9091625809       -2.1073472423       -2.8431517447
 C         0.1251217956       -1.4854348914       -4.0452363907
 O         0.7519929861       -0.8624789675       -4.8758165206
 C        -1.4182201298       -1.7059710714       -4.1451847257
 C        -2.0709911075       -0.8059984393       -5.2171788731
 C        -2.7872049598       -1.5374374691       -6.3063717204
 O        -2.8058599454       -2.8133019192       -6.3441876370
 C        -3.5568921013       -0.7809753290       -7.3534732984
 C        -4.9183484104       -1.5127126124       -7.7912935063
 O        -4.8621334817       -2.6747884205       -8.0253641338
 C        -6.2637344409       -0.7764639006       -7.8993937728
 C        -7.2372451633       -1.6450334328       -8.5634716881
 C        -8.6631735044       -1.4510198933       -7.9897031443
 O        -8.8200233277       -0.5407328510       -7.1302549676
 C        -9.8096718081       -2.4803009261       -8.4375033371
 C        -9.2632315660       -3.8076501638       -7.8098804546
 O        -8.9186754374       -4.6837287611       -8.5232114499
 C        -8.9733445454       -3.8717380988       -6.2822529447
 C        -8.4946170328       -5.1758987755       -5.7727780262
 C        -6.9758207899       -5.5565866195       -6.0269285873
 O        -6.2041461200       -4.8261764801       -6.7131657922
 C        -6.4289775515       -6.7524120006       -5.2999396664
 C        -6.1671405946       -6.5413507855       -3.6258257146
 O        -6.3930417732       -7.5011962954       -2.9151225114
 C        -5.2196628013       -5.3679390315       -3.2228643762
 C        -5.2690346891       -4.8834390493       -1.8452621628
 C        -6.3297572791       -3.7870365642       -1.5716283077
 O        -7.1735748560       -3.5776011114       -2.4093317148
 C        -6.1172952446       -2.7492945710       -0.3463745555
 C        -5.1999306322       -1.6580323242       -1.0279679250
 O        -4.0466360674       -1.7992582829       -1.0792536592
 C        -5.8473423068       -0.2971495192       -1.5394424635
 C        -4.7714080262        0.8139565256       -1.7483088682
 C        -4.0530415067        1.2420740147       -0.4660896838
 O        -4.6744736692        1.0611566045        0.5838121389
 C        -2.5203628979        1.8618164293       -0.4646319143
 C        -1.9237644787        2.2896241806       -1.8112012045
 O        -2.2143735807        1.6722457811       -2.8247269525
 C        -0.8656044078        3.3482127500       -1.8575504313
 C        -2.4016439544        2.8079254641        0.7354793627
 C        -1.6150714883        0.5237709954       -0.1941166539
 C        -7.5363684767       -2.2819500963        0.1442322091
 C        -5.2182897268       -3.3802009059        0.7529983439
 C        -7.3333722729       -8.0240876525       -5.3596746048
 C        -5.0095233970       -7.1668957435       -5.7801120734
 C       -11.1968790847       -2.1584124652       -7.8630672845
 C        -9.7482087782       -2.5472425142       -9.9123719305
 C        -3.7321235206        0.7195453832       -6.9131634210
 C        -2.6768136955       -0.8434878800       -8.5945061899
 C         0.1701272548       -2.1869218128       -1.4806446789
 C         2.3133860752       -1.4310932284       -2.6443514420
 C        -0.1432687325       -7.3094435468       -5.5169660227
 C         1.6057227947       -7.0985745470       -7.3098082876
 C        -4.5924035189       -4.7440325076      -12.2528669735
 C        -3.4195674828       -6.8340147006      -12.5832608667
 C         1.1172067466       -2.3736336407      -16.6029746084
 C        -0.5648560440       -0.7457402807      -15.3212831614
 C        -5.1754135331       -1.4588000664      -19.0222827993
 C        -5.0415179486       -0.7579029742      -21.5347183265
 C        -6.5327907626        5.7120728159      -19.1628818233
 C        -5.6314726696        5.7491350773      -21.6915555468
 C         0.2607304089        3.4452158161      -17.7055974650
 C         1.1978851751        5.5502181007      -18.8744907056
 H         2.2490893395        3.4633875882      -21.9103048206
 H         3.1326944337        3.3115126949      -20.4628759120
 H         2.3400310782        4.8534128949      -20.8489820537
 H        -0.7936576386        6.5295168672      -20.3717340434
 H        -1.5224918905        6.5004307453      -18.8059501071
 H        -2.5540773066        5.2110198210      -21.3166844717
 H        -2.9792354780        6.8576007922      -21.1219717063
 H        -7.1494358004        3.0436652117      -19.0642153698
 H        -5.6246256993        2.9169466154      -18.1197770564
 H        -6.6104476168        1.1486635606      -20.3160692027
 H        -6.5081287462        0.9333719645      -18.5457953376
 H        -2.3889836173       -3.2256406400      -20.2804894645
 H        -3.0985255189       -2.7326730544      -18.6747653731
 H        -0.5208805111       -1.8187240805      -19.9517571973
 H        -0.4648217477       -3.1731809892      -18.8958674223
 H        -0.1520859650       -3.3178139844      -14.0449774412
 H        -0.0253194727       -4.8222790840      -14.9958593039
 H        -1.3407130903       -5.9516887011      -13.8290307041
 H        -2.5854478795       -5.0255617293      -14.5916890925
 H        -1.0447505589       -6.3843233144      -10.9263324310
 H        -1.8983422971       -7.3092459077       -9.8171305610
 H        -1.1284004916       -4.5749385403       -8.9943563774
 H         0.3385501316       -5.7188768688       -9.1630416355
 H         2.7746839384       -5.6047042939       -5.4396540869
 H         1.4975218317       -5.7626673529       -4.2889325256
 H         2.4760065318       -3.0287500945       -4.8290300340
 H         3.2028376630       -4.0472593389       -3.5980376296
 H        -1.7140344322       -1.4506765603       -3.1312031956
 H        -1.6547688551       -2.6876032848       -4.2846291497
 H        -1.2305613004       -0.2063041765       -5.7167089790
 H        -2.8629177563       -0.1215850974       -4.9433456199
 H        -6.1053011712        0.3184321670       -8.2668982802
 H        -6.5030453407       -0.7007454461       -6.7939268407
 H        -6.9083202563       -2.6942965178       -8.4851180782
 H        -7.0728494316       -1.5506511270       -9.6471368707
 H        -9.8452849505       -3.5640221811       -5.7373209129
 H        -8.2662495302       -3.0861436439       -6.0815582251
 H        -9.1607735365       -5.9607447758       -6.0887687035
 H        -8.6484616886       -5.1107531759       -4.6775415478
 H        -5.4831229761       -4.6452900196       -3.9596602913
 H        -4.3107751387       -5.7808470712       -3.5506837393
 H        -4.2690928019       -4.5495456302       -1.5265163674
 H        -5.3698075209       -5.7584676313       -1.1069970538
 H        -6.6022064861       -0.0400500171       -0.8031974978
 H        -6.4038949483       -0.4377267268       -2.4582483120
 H        -5.0354573255        1.7995140957       -2.2593633937
 H        -3.9297455771        0.4969182730       -2.3336171249
 H         0.0429715757        2.9193818272       -1.4780734140
 H        -0.9059443700        4.0936937081       -1.0664252202
 H        -0.5778207746        3.7344713937       -2.8541699103
 H        -1.3215384616        2.7320296195        1.0399804047
 H        -3.0951374033        2.4159727962        1.5012434578
 H        -2.7919248856        3.8299012305        0.4342552098
 H        -1.9657932308        0.0886411399        0.7334340892
 H        -0.5795731111        0.7897773700        0.0900123681
 H        -1.7943133627       -0.2759210865       -0.9673658213
 H        -7.7427672443       -2.9040851527        1.0302074658
 H        -8.2778150160       -2.3370480932       -0.5399697540
 H        -7.6519929823       -1.2547021484        0.5182811702
 H        -5.9360851584       -3.9953787900        1.2600264343
 H        -4.8162241750       -2.6776739596        1.3998516637
 H        -4.4040879527       -3.9081761642        0.3468582407
 H        -8.1981140291       -8.0609965046       -4.7379845041
 H        -6.7098233682       -8.8169799555       -4.9172058836
 H        -7.7117624253       -8.3821223618       -6.3039156881
 H        -4.8240992569       -7.5492167819       -6.8066241253
 H        -4.7263559697       -8.0315864127       -5.1339329781
 H        -4.3789763085       -6.3310372810       -5.6314919768
 H       -11.8777355682       -2.9807297385       -7.8855094724
 H       -11.6247846631       -1.3690628854       -8.5419563180
 H       -11.1849642174       -1.9552095561       -6.7744113075
 H        -8.6936054938       -2.5499746453      -10.2066995867
 H       -10.3395741800       -1.7153889457      -10.1956961623
 H       -10.2180338133       -3.4661927874      -10.3725318233
 H        -4.4113802045        1.2794767079       -7.4833047676
 H        -2.7537819024        1.1546861651       -6.9871536392
 H        -4.1710151309        0.6919285365       -6.0050425126
 H        -1.7433802162       -0.2148299141       -8.4831671585
 H        -3.2050223269       -0.5298394450       -9.4825563797
 H        -2.2936334371       -1.8060027850       -8.9399075897
 H         0.9386113091       -2.6001180988       -0.8823588910
 H        -0.6891734164       -2.8132498858       -1.5633796500
 H        -0.0181425650       -1.1771920388       -1.2253405048
 H         2.8343822133       -1.2099056746       -3.5676160544
 H         3.0172576661       -2.1539826056       -2.2553002372
 H         2.1678908349       -0.5977210474       -2.0411888548
 H        -1.1296977187       -6.9922607640       -5.0930895691
 H         0.5860020597       -7.4540133028       -4.6870695303
 H        -0.2847240411       -8.2757672331       -5.9284480789
 H         1.8467841345       -6.3383440634       -8.0694812808
 H         1.2165427578       -7.9288949166       -7.8327517417
 H         2.5442626200       -7.1567254562       -6.6247030785
 H        -5.4707146806       -5.4136462110      -12.1046726546
 H        -4.7185426214       -4.3480177812      -13.2991410164
 H        -4.6185874216       -3.9084317742      -11.5351805444
 H        -4.3391060273       -7.2691557655      -12.1306387954
 H        -2.7172485635       -7.6048571191      -12.2344516889
 H        -3.4612847164       -6.6679748900      -13.6629771605
 H         1.6368618400       -2.6145316023      -15.7288007468
 H         1.6769517391       -1.4639344141      -16.7068793433
 H         1.1959972221       -3.0409547149      -17.5212761372
 H         0.3835860062       -0.3437902395      -15.2348885677
 H        -0.7712520758       -0.9955456291      -14.3111261183
 H        -1.3374253853       -0.0564417682      -15.5719141016
 H        -5.4040402304       -2.4599826656      -19.2561648849
 H        -6.1458952672       -1.0094009460      -18.7294944680
 H        -4.7051303476       -1.5297225340      -18.1107888660
 H        -6.1452823367       -0.3282604687      -21.6224534635
 H        -5.1427132484       -1.8325643432      -21.8736191071
 H        -4.3438221266       -0.4519456335      -22.2814795150
 H        -6.3977012235        5.2747076164      -18.2366160613
 H        -7.5154331350        5.4837030665      -19.4047441925
 H        -6.4134538979        6.8086627731      -19.1354112953
 H        -5.3583480871        5.0232077842      -22.4657928721
 H        -5.0143910828        6.6577377981      -21.8038430181
 H        -6.7408974670        6.0511349059      -21.8286404943
 H        -0.4828777667        2.6309748370      -17.8444651405
 H         0.1088511911        4.0654432827      -16.8309903518
 H         1.2515933882        2.8855258003      -17.4701119887
 H         1.5107352456        5.9987918501      -19.7976594335
 H         2.1938692145        5.3450299199      -18.4595785378
 H         0.6953719939        6.1933790592      -18.1223032220
 Na       -1.1947452868        1.5455380600      -19.4855603824
 Na       -3.9194828792       -4.6304975564       -7.2575583638
