232

 C         2.4299223069        3.7144018860      -20.9093308644
 C         1.0973222544        3.3286759826      -20.1674767875
 O         0.6444548810        2.2533411925      -20.4534918226
 C         0.4021045616        4.2184503949      -19.0207680692
 C        -1.1272993722        4.6230226868      -19.4389769445
 O        -1.9975216165        3.7454419474      -19.6149155815
 C        -1.5677573127        6.0160368434      -19.7913604756
 C        -2.9700878303        6.0430386896      -20.5492707397
 C        -4.0742242515        5.5233241424      -19.6004639201
 O        -3.9145461747        5.6303395068      -18.3879825990
 C        -5.4537497613        5.1584581151      -20.1608079463
 C        -5.3987069184        3.5849988343      -20.3530489388
 O        -5.0265068573        3.0273525956      -21.3077877900
 C        -6.1513860577        2.8537688847      -19.1364717984
 C        -6.0968678101        1.1692563385      -19.3829827284
 C        -4.5545986398        0.8055799187      -19.5082551077
 O        -3.7296083199        1.5363607154      -19.1314858538
 C        -4.3320023417       -0.6196054132      -20.0177759323
 C        -2.8369643263       -1.0502349566      -20.1707923478
 O        -2.0409868711       -0.3212056852      -20.7022908553
 C        -2.4411778977       -2.4121634799      -19.7218744990
 C        -1.0163917290       -2.3307138110      -19.0370969127
 C        -0.9117207866       -1.3896658351      -17.8291425204
 O        -0.9492655094       -0.1722975921      -17.9723386323
 C        -0.3970619515       -1.9413072706      -16.4213418806
 C        -1.2105665733       -3.2050328124      -15.8691600322
 O        -2.2536580777       -3.4743399574      -16.4285324484
 C        -0.6475391774       -4.0053166769      -14.6426936452
 C        -1.7435645287       -4.9829854190      -14.0983553780
 C        -2.0660143317       -4.5908813033      -12.6066250065
 O        -1.5879139278       -3.7038860607      -11.9314649310
 C        -3.2660990429       -5.4935777190      -11.9142219442
 C        -2.8930265982       -5.6780909290      -10.4246159711
 O        -3.5679767976       -5.1886871321       -9.5677732201
 C        -1.4931203050       -6.3456923835      -10.0334147751
 C        -0.6898986920       -5.4265718546       -8.9858345431
 C        -0.9143576265       -5.9302550552       -7.5309382365
 O        -2.0028169461       -5.9012386457       -6.9207386047
 C         0.2526460015       -6.4636098291       -6.6629771513
 C         0.8263676580       -5.1592440905       -5.9570056345
 O         0.4177688005       -4.0960936355       -6.3747289557
 C         2.0320218791       -5.2202974384       -5.0873786600
 C         2.2838319725       -3.8852920426       -4.3702478792
 C         1.1471599721       -3.6042774101       -3.3459946130
 O         0.4416686279       -4.5247708834       -2.9708768540
 C         0.9582121102       -2.1958031495       -2.8105478102
 C         0.0830246859       -1.4163407631       -3.8902701762
 O         0.6140364253       -0.7508651805       -4.7521258900
 C        -1.4345806752       -1.5467440698       -3.9789312064
 C        -1.9356807519       -0.8299769968       -5.2070226351
 C        -2.7501200753       -1.6624073935       -6.2423736253
 O        -2.6169917664       -2.8813027482       -6.1623021092
 C        -3.4452232392       -0.7596699156       -7.4079086407
 C        -4.8756232276       -1.4912273885       -7.7074610176
 O        -4.9039653777       -2.6842147033       -7.9749074902
 C        -6.2075988453       -0.7303918131       -7.8420013241
 C        -7.2434926858       -1.5834314343       -8.4918930022
 C        -8.6416321781       -1.3177172913       -7.8860776880
 O        -8.7982576994       -0.5852711498       -6.9580952171
 C        -9.7389490358       -2.3338927907       -8.4750388204
 C        -9.2171949980       -3.8013931868       -7.8168961794
 O        -9.0720956996       -4.8005415565       -8.4888069038
 C        -8.9807940291       -3.9308448500       -6.2421286317
 C        -8.5587182824       -5.3462030350       -5.9627553956
 C        -7.0258393436       -5.6385774408       -6.0522756565
 O        -6.3581530508       -4.7992412938       -6.6222696449
 C        -6.4073372092       -6.8844601523       -5.2357837991
 C        -6.0596374393       -6.5790248359       -3.7899441410
 O        -6.2198162387       -7.4821029370       -3.0226038430
 C        -5.2323028288       -5.3177657027       -3.3207695767
 C        -5.3325815236       -4.9193545717       -1.7623573041
 C        -6.2267957061       -3.7404285993       -1.5369085006
 O        -7.2004667707       -3.5152471894       -2.2628746078
 C        -6.0902753948       -2.7631853876       -0.3378696140
 C        -5.2024908554       -1.5274093080       -0.9531849279
 O        -4.0167534194       -1.7120154218       -1.0997880121
 C        -5.8161858010       -0.1702676963       -1.4311053290
 C        -4.8281815815        0.8249459502       -1.8338738406
 C        -4.0593012979        1.2549807003       -0.4406837691
 O        -4.6251360923        1.1188827879        0.5930611308
 C        -2.6171926366        1.8013933277       -0.4150677967
 C        -1.9095245671        2.2577665513       -1.7994081030
 O        -2.1834778487        1.7100005040       -2.8725907085
 C        -0.7628600962        3.3214915004       -1.9015245074
 C        -2.4932566593        2.8466726562        0.7400981180
 C        -1.6996821677        0.5785949941       -0.0039513078
 C        -7.4889874303       -2.4172414602        0.1163677551
 C        -5.1927899013       -3.2353326020        0.8354585805
 C        -7.3783761674       -8.0986008583       -5.3158389136
 C        -5.0438220400       -7.2073388577       -5.8127963380
 C       -11.1507829485       -2.0150248431       -7.8078468860
 C        -9.8484872264       -2.5762465377       -9.9815591847
 C        -3.7007736240        0.6888949250       -6.9684638433
 C        -2.6058624339       -0.7808685381       -8.6547740481
 C         0.1230723942       -2.2659931721       -1.5141925528
 C         2.3337894829       -1.4773209689       -2.5899490903
 C        -0.1627971398       -7.4865859193       -5.5337350170
 C         1.5095955872       -7.0003988594       -7.3773553280
 C        -4.6240751184       -4.6865809597      -12.1627149316
 C        -3.3343730694       -6.8730617405      -12.6991802679
 C         1.0428384559       -2.2993848287      -16.5658675879
 C        -0.5964361741       -0.9196460854      -15.3385082892
 C        -5.0488517347       -1.5066306542      -18.9527609167
 C        -5.0271886157       -0.7241927295      -21.4864401403
 C        -6.4850932787        5.6071838355      -19.1784538446
 C        -5.6181168542        5.7038916854      -21.6667413953
 C         0.2606283456        3.5603750427      -17.6314179380
 C         1.1731668602        5.5318438220      -18.8221896717
 H         2.4767815913        3.2589687396      -21.9063040697
 H         3.2392192760        3.2720960018      -20.2715105919
 H         2.5649505480        4.7798291714      -21.0248064038
 H        -0.8240586118        6.6488972202      -20.2566063983
 H        -1.8162150810        6.5511431477      -18.7609826322
 H        -2.9425123469        5.5971941256      -21.4831796205
 H        -3.2263450961        7.0869607338      -20.8460159579
 H        -7.1833818899        3.1908519146      -19.0563771316
 H        -5.6041156687        2.9733745460      -18.1593036291
 H        -6.6753188212        0.8974111997      -20.2822914501
 H        -6.5120095380        0.7591055784      -18.4777615743
 H        -2.3663946637       -3.0522809887      -20.5439337077
 H        -3.0990136109       -2.8060721220      -18.9433190944
 H        -0.3109078716       -2.0108144789      -19.8588399296
 H        -0.6754901929       -3.3387710197      -18.7858561660
 H        -0.3834859401       -3.2480450987      -13.9293865626
 H         0.1904644634       -4.5351662727      -14.9842957733
 H        -1.4975341352       -6.0740113273      -14.1268195296
 H        -2.7042511305       -4.8977868764      -14.7191009334
 H        -0.8690375854       -6.6008511880      -10.8899669723
 H        -1.7279401996       -7.3801631983       -9.6278907199
 H        -1.1980255505       -4.4362989679       -9.2082824446
 H         0.4362536624       -5.5674344656       -9.1488818688
 H         2.7807102240       -5.3677524551       -5.7986083901
 H         2.0464528950       -6.0660779007       -4.3467083257
 H         2.3115812787       -3.0719635292       -5.0905165502
 H         3.2381559995       -3.8801916977       -3.8975757981
 H        -1.9339885609       -1.3489728676       -3.0958280075
 H        -1.4783537166       -2.6361149142       -4.2050100193
 H        -1.0066196512       -0.4489059752       -5.6960031500
 H        -2.5807868996        0.0483622328       -5.0704529108
 H        -5.9590297995        0.1275591937       -8.4513374418
 H        -6.4563183113       -0.3540702433       -6.8251063759
 H        -6.9829212550       -2.5525158740       -8.4529820330
 H        -7.1230580016       -1.4640684736       -9.5954313186
 H        -9.8861755022       -3.7168046169       -5.7406454052
 H        -8.2971666233       -3.2394563087       -5.8844952949
 H        -8.9975246631       -5.9865532133       -6.7056285662
 H        -9.0384237565       -5.6238861981       -5.0448558822
 H        -5.4542019806       -4.5178455455       -3.9920361863
 H        -4.2551053887       -5.6653670990       -3.6122915447
 H        -4.3210282331       -4.7033148909       -1.4272822545
 H        -5.6031517232       -5.6472864596       -1.0271020222
 H        -6.5101945262        0.2247951752       -0.7022668300
 H        -6.4228354159       -0.3737166289       -2.3018775691
 H        -5.3119471567        1.7402755526       -2.1929305404
 H        -4.0917101667        0.5857971229       -2.6258945309
 H         0.1269231894        2.7218838902       -1.6155162608
 H        -0.5322458390        4.1019826593       -1.2010785115
 H        -0.5467687383        3.5587736033       -2.9044673093
 H        -1.4786488547        3.0013232803        0.8048611225
 H        -2.8657371663        2.3446938117        1.7072811413
 H        -3.1276318360        3.7271837469        0.4942937469
 H        -2.0771890290        0.0866755336        0.8928617791
 H        -0.7358202141        0.9630639313        0.2867953542
 H        -1.7282470100       -0.2180367518       -0.7862777003
 H        -7.6907445878       -3.1208485088        0.9831006343
 H        -8.2425662744       -2.5007116151       -0.6942035011
 H        -7.7085948475       -1.4556978189        0.4652034046
 H        -5.7798391551       -3.9520143311        1.3226702859
 H        -5.0258433665       -2.4178628538        1.5024076367
 H        -4.2287037799       -3.5260332116        0.5268126481
 H        -8.1909617935       -8.0985128526       -4.5424031813
 H        -6.9110779206       -9.1053281039       -5.1581515545
 H        -7.9150567965       -8.1397741258       -6.2039419717
 H        -4.9325799012       -7.2915045258       -6.9117837873
 H        -4.7578372909       -8.1616323797       -5.4176190484
 H        -4.3388892931       -6.4036821595       -5.4611845152
 H       -11.9392443927       -2.8219464150       -7.7121009215
 H       -11.5072615756       -1.2565594138       -8.4961529504
 H       -11.0586040929       -1.7167934035       -6.7535897273
 H        -8.8508181532       -2.9195553020      -10.3100903661
 H       -10.2812791194       -1.7519607386      -10.4491116674
 H       -10.5077174997       -3.3935687906      -10.1444286480
 H        -4.4215918611        1.1690563142       -7.6473336949
 H        -2.7886176127        1.1841300002       -7.0278954378
 H        -4.2152153748        0.7492063532       -5.9759810672
 H        -1.6937953949       -0.2592549152       -8.5879462684
 H        -3.1763821785       -0.5304342181       -9.6253234768
 H        -2.2454320455       -1.7894645105       -8.9329253369
 H         0.6007951955       -2.9313482489       -0.9190541877
 H        -0.8605026709       -2.6496648201       -1.7892790685
 H         0.1139634460       -1.2969564610       -1.1664429730
 H         2.7557422042       -1.2013758189       -3.4559940055
 H         3.1165673146       -2.1656736222       -2.2515754811
 H         2.1173359399       -0.6316835204       -1.9240160102
 H        -0.9764530790       -7.0360276064       -4.9583969520
 H         0.6471618907       -7.7370222664       -4.8529752092
 H        -0.5484332089       -8.3929975624       -5.9100502585
 H         2.0268632328       -6.3220220217       -8.1328320951
 H         1.2118112782       -7.8989390378       -7.8145198167
 H         2.1621688962       -7.0906813823       -6.6059962091
 H        -5.4750033214       -5.4660410229      -12.0446948947
 H        -4.7903232089       -4.2923346921      -13.1853206546
 H        -4.7246778716       -3.9061136079      -11.4464003198
 H        -4.2963124473       -7.4138427112      -12.3865613634
 H        -2.6431526252       -7.5881892215      -12.2278118170
 H        -3.2714301363       -6.7066531111      -13.7792396744
 H         1.2862516548       -2.3327623995      -15.4747208575
 H         1.8323115373       -1.5887819143      -16.7921722355
 H         1.1040684436       -3.1815742875      -17.0932539697
 H         0.1806399825       -0.1874809802      -15.3472633477
 H        -0.4138249698       -1.3104180077      -14.3570732801
 H        -1.5845617346       -0.5427750162      -15.3473180023
 H        -4.8897846504       -2.6061689615      -18.9586687162
 H        -6.0860027352       -1.3662561623      -18.9362268256
 H        -4.8204206178       -1.2422103969      -17.8503623827
 H        -6.1388624421       -0.6112776254      -21.4728520042
 H        -4.8228389192       -1.6685399616      -21.9784140408
 H        -4.4615503547       -0.1141816799      -22.1918203535
 H        -6.2549533769        5.1813855450      -18.2017423671
 H        -7.4715234368        5.3596089015      -19.4541589743
 H        -6.4427917429        6.6250755204      -19.0975156660
 H        -4.9607727070        5.0930170012      -22.3035934291
 H        -5.5071319000        6.8268020514      -21.8699600212
 H        -6.6865547209        5.3973599155      -21.9096425567
 H        -0.7326640183        3.1221928845      -17.5040642752
 H         0.5370692574        4.2770403313      -16.8518361690
 H         0.9459629306        2.6876702295      -17.4696526034
 H         1.5895259904        5.8865108831      -19.7423665840
 H         2.0921025844        5.4362830977      -18.3093699176
 H         0.5967649362        6.2140898087      -18.2618368788
 Na       -1.3686391675        1.5708949303      -19.5767096991
 Na       -3.8722868932       -4.6237297883       -7.1972859214
