232

 C         2.3594430996        3.7310143888      -20.5564397364
 C         0.9393274254        3.4497826062      -20.1377688960
 O         0.4307274847        2.3543882490      -20.2756926533
 C         0.3799351812        4.4570160225      -19.0734425818
 C        -1.0895113576        4.7665887639      -19.5597048559
 O        -1.8166062695        3.8715107009      -19.7759070765
 C        -1.5074797117        6.1932993569      -19.8600273013
 C        -2.9473124588        6.1787227881      -20.4240894117
 C        -4.0103671190        5.4898407077      -19.5532147147
 O        -3.8532007986        5.2742653630      -18.3744527907
 C        -5.4572263754        5.1716083000      -20.2590608079
 C        -5.6009694853        3.5056088160      -20.3660831905
 O        -5.4938532155        2.9356309996      -21.4693044466
 C        -6.1322888245        2.7127537897      -19.1968918154
 C        -6.0623781842        1.1857919207      -19.2839366375
 C        -4.6217994937        0.7409026938      -19.3312926107
 O        -3.7212655983        1.5205376680      -18.9285791539
 C        -4.3273955103       -0.8203360980      -19.8750781456
 C        -2.7706956531       -1.0241599577      -20.2018764593
 O        -2.3115490614       -0.1457100833      -20.9531108485
 C        -2.0339593312       -2.3604342211      -19.9024663973
 C        -0.8611811827       -2.4582342325      -18.9694440555
 C        -0.8152957675       -1.4354582305      -17.8951184555
 O        -1.1349016751       -0.2760966288      -18.0119020211
 C        -0.4438379430       -1.8972911349      -16.4645473102
 C        -1.2888344293       -3.0674054704      -16.0098227819
 O        -2.3560085796       -3.3165023441      -16.4904498543
 C        -0.8125406787       -3.8935460934      -14.7714601812
 C        -1.7282388556       -4.9986613969      -14.2920821456
 C        -2.1409685901       -4.6000536285      -12.7964465031
 O        -1.8031336505       -3.5218045617      -12.2892121133
 C        -3.0584362865       -5.5489191164      -11.9984583758
 C        -2.7396941631       -5.7290948181      -10.4111029425
 O        -3.6579090909       -5.4334121592       -9.6297029753
 C        -1.3842293873       -6.3048144031      -10.0152427129
 C        -0.6792274269       -5.4195712820       -8.9477906763
 C        -0.9420931822       -5.9799552137       -7.4696977674
 O        -2.0216229403       -6.0493351952       -6.9701518219
 C         0.3539765499       -6.6104109657       -6.7398209872
 C         1.0779617619       -5.2575072540       -6.1058717881
 O         0.4739986903       -4.2003920247       -6.3159361651
 C         2.2720009214       -5.1647600999       -5.1088739175
 C         2.3372379906       -3.7806812515       -4.3835244168
 C         1.1957614031       -3.6772416002       -3.4408086541
 O         0.4697168501       -4.6114075782       -3.1639037239
 C         0.9614448132       -2.3000905294       -2.7698329210
 C         0.1900430786       -1.3435436393       -3.6993051794
 O         0.8221324208       -0.5795571228       -4.3782673338
 C        -1.3223174015       -1.4313937077       -3.9402540288
 C        -1.9847943965       -0.6471473292       -5.1168216519
 C        -2.6406410865       -1.5704960547       -6.1730983078
 O        -2.6794172072       -2.8177375616       -6.0851866088
 C        -3.3938937971       -0.8066866684       -7.3214815950
 C        -4.7656476900       -1.5405398434       -7.6879590398
 O        -4.8348102665       -2.7155697331       -7.9493226563
 C        -6.0185825697       -0.6500787861       -7.8324210898
 C        -7.1626191696       -1.4274740548       -8.5720622973
 C        -8.5288450931       -1.4240717261       -7.7575791774
 O        -8.7805213093       -0.6278559563       -6.8233656001
 C        -9.7444588446       -2.3866425002       -8.2094778363
 C        -9.4504855249       -3.9261521585       -7.8196581869
 O        -9.4200449224       -4.7822985104       -8.6563105932
 C        -9.0505080713       -4.1241852621       -6.3265519378
 C        -8.4752627861       -5.6109610033       -6.0564646116
 C        -6.9842961895       -5.6816485636       -5.9563645433
 O        -6.2521783493       -4.7595932483       -6.3918323621
 C        -6.3553704795       -6.9513711537       -5.2414237231
 C        -5.8523226665       -6.6004492746       -3.7404476675
 O        -6.0381175257       -7.4244623340       -2.8570580785
 C        -5.3705595534       -5.2128345385       -3.3589599769
 C        -5.3218580649       -4.9457095734       -1.8899932655
 C        -6.2451267363       -3.7272453164       -1.5468727014
 O        -7.1288152519       -3.4437317873       -2.2978691743
 C        -6.0089700046       -2.6997874141       -0.3568143813
 C        -5.2090128731       -1.4751688525       -0.9629597872
 O        -4.0132774140       -1.5835931823       -1.1872057053
 C        -5.9198558874       -0.1827984361       -1.3014965246
 C        -4.8438371501        0.8942807734       -1.7555757120
 C        -4.0687934451        1.2735134986       -0.4851972338
 O        -4.6123950360        1.2996654286        0.6448484341
 C        -2.6173825416        1.7405383462       -0.4136355873
 C        -1.9855063325        2.2353829386       -1.8044725302
 O        -2.3596265593        1.6784242263       -2.8169636471
 C        -0.7350720846        3.1083328648       -1.7577362977
 C        -2.5793725412        3.1012451299        0.5323219090
 C        -1.7786816965        0.5779870712        0.2744479045
 C        -7.3460181602       -2.2036799601        0.2080983343
 C        -5.1306784991       -3.2814182233        0.8398784595
 C        -7.3418246438       -8.1063324248       -5.2538801802
 C        -5.1697589987       -7.3257863058       -6.2039152667
 C       -11.0762146155       -1.8594378565       -7.6129075289
 C        -9.8061185942       -2.4061864367       -9.7674465437
 C        -3.5752030889        0.7308728795       -6.9700269613
 C        -2.5255293072       -1.0543431998       -8.5544790785
 C         0.1831544676       -2.4683217597       -1.4011237390
 C         2.2613085236       -1.5247491825       -2.4142545125
 C        -0.1639458331       -7.5513205210       -5.7982357438
 C         1.3587546818       -7.3206376829       -7.8147703311
 C        -4.4519257547       -4.8132818446      -11.9735672678
 C        -3.2670599723       -6.9504439998      -12.5472025776
 C         1.1063723813       -2.2763726966      -16.4904007089
 C        -0.6584806138       -0.6935813768      -15.4420423359
 C        -5.1378128511       -1.7758146849      -18.9693523268
 C        -4.9159289324       -0.8879548393      -21.3576756385
 C        -6.6361790053        5.6639305256      -19.2484685152
 C        -5.6530957573        5.8022966606      -21.6768398997
 C         0.1854903567        3.5814903995      -17.8078185867
 C         1.1905137063        5.7207567082      -18.8657587677
 H         2.7605946987        2.9519865040      -21.2094390877
 H         2.9095176755        3.7379427482      -19.6053982329
 H         2.4452485811        4.6970345495      -21.1441140729
 H        -0.8711387053        6.5536680733      -20.7157065026
 H        -1.4860780731        6.9552515249      -19.1750009443
 H        -3.1365892467        5.8880171470      -21.5283606728
 H        -3.1199639666        7.2427425191      -20.5539441123
 H        -7.2201929414        2.8808236525      -19.1796009257
 H        -5.6827623005        3.0635247004      -18.2954672265
 H        -6.6606104755        0.9531197519      -20.1590903714
 H        -6.5396139612        0.8480571218      -18.3371908356
 H        -1.5869667924       -2.7394570484      -20.8718382621
 H        -2.7644292287       -3.0758804787      -19.5183491456
 H         0.0387798912       -2.4136534104      -19.5549400825
 H        -0.8701823629       -3.5010565096      -18.6383709146
 H        -0.7121552562       -3.2301989134      -13.8646636041
 H         0.2087897801       -4.3211321107      -15.0426618374
 H        -1.2039691248       -5.9348587747      -14.1508169145
 H        -2.5845525916       -5.2007807428      -14.8823888465
 H        -0.7500695521       -6.3347893570      -10.9260679760
 H        -1.4188867502       -7.3074463016       -9.6506312383
 H        -1.1416220012       -4.4715339713       -9.0135441026
 H         0.3489609516       -5.4684022589       -9.1756163806
 H         3.3226083126       -5.3619461048       -5.5734963159
 H         2.1522860855       -5.8709514933       -4.2770162188
 H         2.4163063777       -2.9032185265       -5.0275996560
 H         3.2596632343       -3.7763510197       -3.7531658233
 H        -1.8137743202       -0.9380253604       -2.9926090886
 H        -1.5492626423       -2.5133875756       -3.9136217304
 H        -1.2933314697       -0.0448544257       -5.6681735759
 H        -2.7415377276        0.0458379810       -4.7681659302
 H        -5.6861780713        0.2586603286       -8.3511485636
 H        -6.3271027523       -0.3729043497       -6.8729820583
 H        -6.8055608129       -2.4686541909       -9.0051288166
 H        -7.4158680700       -0.8975534488       -9.4876823851
 H       -10.0537560543       -3.9659744370       -5.8174451063
 H        -8.3611824987       -3.3387591931       -5.8533865338
 H        -8.7878714465       -6.3888965498       -6.8094557665
 H        -8.9251787616       -5.9567310710       -5.0927019239
 H        -6.1152660024       -4.5488284072       -3.8974590425
 H        -4.3996220474       -5.0426137419       -3.9070921549
 H        -4.2799558360       -4.8190373491       -1.6110268067
 H        -5.6618087038       -5.7493551123       -1.2262529102
 H        -6.4113543699        0.1412529799       -0.3601010421
 H        -6.7559727429       -0.3395351532       -2.0193857144
 H        -5.2763242707        1.8369266043       -2.1259226293
 H        -4.0858280220        0.6174242321       -2.4483037959
 H         0.1445206676        2.8872773503       -1.2201918909
 H        -0.9564015274        4.0290533322       -1.2153661127
 H        -0.4222304293        3.3734233481       -2.7908664146
 H        -1.4989940479        3.3823322606        0.6000300343
 H        -2.8151582188        2.8241118981        1.4941878293
 H        -3.1581065509        3.8315283210        0.0077920767
 H        -2.1009144103        0.2525175672        1.2404843690
 H        -0.7315383872        0.8687545874        0.2793582584
 H        -1.9080498007       -0.2813698567       -0.3407083859
 H        -7.9829153319       -2.9939243948        0.5562308449
 H        -7.8264154234       -1.5309858737       -0.4437082439
 H        -7.2140844231       -1.5137508878        1.1254277565
 H        -5.4153514700       -4.3657651025        0.9792555098
 H        -5.4278666488       -2.7289488580        1.7501804568
 H        -4.0566546142       -3.0134586560        0.7009033398
 H        -8.1961208396       -7.9540477640       -4.6376406548
 H        -6.9189149625       -9.0407618962       -4.9460280190
 H        -7.7830937072       -8.3476577115       -6.2753733774
 H        -5.6158671395       -7.1758492716       -7.1817117884
 H        -4.8085687075       -8.3952520383       -6.1647794557
 H        -4.3337708569       -6.6809172417       -6.1368780247
 H       -11.8717835231       -2.5371882113       -7.7025648875
 H       -11.3781399192       -0.8949940179       -8.0286508438
 H       -10.9694820968       -1.9319900969       -6.5406505065
 H        -8.9440305546       -2.9474281897      -10.0623347171
 H        -9.7298206859       -1.3675062122      -10.1055164581
 H       -10.7364778604       -2.8465425976      -10.1819972352
 H        -3.8080754802        1.2818806413       -7.9271509051
 H        -2.6005067683        1.1648161912       -6.5161890917
 H        -4.4556242609        0.8983685415       -6.3184142481
 H        -1.4549610962       -0.8310486316       -8.2979436705
 H        -2.8429932125       -0.5384589891       -9.3795985540
 H        -2.3648143603       -2.0419296743       -8.9193578286
 H         0.7164406704       -3.2858591463       -0.8244275630
 H        -0.8244551687       -2.8021309412       -1.6444113426
 H         0.2458312322       -1.4271161844       -0.9680987505
 H         2.9263061207       -1.4125892230       -3.3488278164
 H         2.9220388210       -2.1245426424       -1.7690447414
 H         1.9867768452       -0.5799594893       -1.9703256251
 H        -0.7549715072       -7.0931485293       -5.0088137368
 H         0.6551228176       -8.0761873071       -5.3170257763
 H        -0.8405016574       -8.2879175269       -6.2555406239
 H         2.0071266673       -6.5805025661       -8.1961050241
 H         0.7856357933       -7.8570757454       -8.5658619652
 H         1.9918011665       -8.0644987753       -7.1748949231
 H        -5.2160292300       -5.2783082705      -11.4588016392
 H        -4.8110382167       -4.7194583862      -12.9742267404
 H        -4.2586143676       -3.8037017717      -11.6037164695
 H        -3.6638261660       -7.5997905006      -11.8285446246
 H        -2.3398869720       -7.4125606544      -12.8235462651
 H        -4.0140505161       -6.8361109905      -13.3424388110
 H         1.5948542778       -2.2646635445      -15.5550731090
 H         1.6157414736       -1.4987105615      -17.0126298942
 H         1.2277579169       -3.2465536557      -17.1183764394
 H        -0.9054268494        0.3199552441      -15.8162779519
 H         0.2959017334       -0.4855205111      -14.8886596758
 H        -1.4751494132       -1.0288786951      -14.7308762557
 H        -5.0288307441       -2.8103116221      -19.2735997451
 H        -6.2561544296       -1.4739451204      -18.9252749379
 H        -4.9573901192       -1.7960145988      -17.9387544352
 H        -5.9917724877       -1.1315866018      -21.1641519928
 H        -4.5009231430       -1.5468813245      -22.0558879918
 H        -4.8389766006       -0.0167481002      -21.8841450776
 H        -6.4536620540        5.3084962199      -18.2073617482
 H        -7.6046437582        5.2187786218      -19.6514626498
 H        -6.8875269855        6.8214532391      -19.1595544155
 H        -4.7325213778        5.8235179150      -22.2173189367
 H        -6.0705130980        6.7719665659      -21.5613445640
 H        -6.4484577073        5.3223862136      -22.2290789298
 H        -0.8469208198        3.4395875978      -17.5596270381
 H         0.6947418417        3.9476851774      -16.9573486374
 H         0.4806934852        2.5733745139      -18.0071118246
 H         1.1790307861        6.3804444402      -19.7197464488
 H         2.2684988289        5.5989973218      -18.8481808656
 H         0.9504510012        6.3392041771      -17.9713398182
 Na       -1.6178178354        1.4842657559      -19.6962029965
 Na       -3.9438027510       -4.6074541684       -7.2078088424
