232

 C         2.4263762678        3.7094601219      -20.5575554344
 C         1.0428378005        3.4723558404      -19.9953753839
 O         0.4271871012        2.4803089399      -20.3649084572
 C         0.3159822441        4.4976466752      -18.9902001183
 C        -1.0923947547        4.7504871898      -19.6697621593
 O        -1.8517480583        3.8429087246      -19.9302221256
 C        -1.5246603884        6.2374567459      -19.8845684760
 C        -3.0562706563        6.3032622987      -20.4442168948
 C        -4.1659637329        5.4632209964      -19.6309057015
 O        -3.9159358617        5.0727163624      -18.4905354767
 C        -5.5130027478        5.1296439677      -20.3124031872
 C        -5.7349660336        3.6093619476      -20.4361633731
 O        -5.6143085677        3.0312943262      -21.4237577536
 C        -6.1778567547        2.6954243079      -19.0271439454
 C        -6.1184596238        1.1402391211      -19.2853926895
 C        -4.6289336674        0.6146028064      -19.2786682267
 O        -3.8000250608        1.3143120688      -18.8392334991
 C        -4.3734666612       -0.7523081906      -19.8715798704
 C        -2.8227091231       -1.0997079922      -20.2525100874
 O        -2.2547022494       -0.2487413031      -20.9652346616
 C        -2.0729950436       -2.4102164221      -20.0787695999
 C        -0.8076886840       -2.3566937008      -19.0643794087
 C        -0.9408791232       -1.3569148109      -17.8744645671
 O        -1.2272026745       -0.1954200210      -18.1056794446
 C        -0.4227116085       -1.8106125132      -16.4291195824
 C        -1.3328507487       -3.0732992724      -15.9806562225
 O        -2.3781910288       -3.2153396517      -16.5806164312
 C        -0.7951897673       -3.9876041718      -14.7496389475
 C        -1.7184202769       -4.9676791597      -14.1931066654
 C        -2.1578910449       -4.6505136386      -12.7611965213
 O        -1.8777236031       -3.5123961523      -12.4090203946
 C        -3.1611537424       -5.5538021187      -11.9689516666
 C        -2.7129543605       -5.6799565709      -10.4280886272
 O        -3.5118482900       -5.5392568947       -9.5347399787
 C        -1.3337781064       -6.2018300306      -10.0544678831
 C        -0.6783183215       -5.3055640145       -8.8969623510
 C        -0.8824577594       -5.9755787478       -7.5621921442
 O        -1.9142491634       -6.0991815564       -6.9603298272
 C         0.4392727054       -6.6001804452       -6.8121387640
 C         0.9977921248       -5.2626750997       -6.1516753780
 O         0.4081202063       -4.2026173167       -6.4505637967
 C         2.2278494464       -5.2766512672       -5.2152862404
 C         2.4152848898       -3.9386336175       -4.3968383313
 C         1.2076401509       -3.6776028136       -3.3891441671
 O         0.4310531690       -4.5913655722       -3.2582697952
 C         0.9757867445       -2.2868898496       -2.6948032027
 C         0.2339732710       -1.3217667268       -3.7821103961
 O         0.9081497122       -0.4428327045       -4.2949851284
 C        -1.3242081888       -1.5328158399       -3.8500617574
 C        -2.0333802552       -0.6810105849       -4.9770840358
 C        -2.7267735115       -1.4825723443       -6.0381210296
 O        -2.7238198113       -2.7658473395       -6.0006909676
 C        -3.4005316031       -0.7770710710       -7.3211952353
 C        -4.8499792879       -1.4562786042       -7.7243333085
 O        -4.7721134693       -2.6292852115       -7.9877686568
 C        -6.1699016633       -0.6880018154       -7.8160376964
 C        -7.2621401079       -1.4006365745       -8.5381559770
 C        -8.5234045480       -1.4126715072       -7.7300014532
 O        -8.5115548633       -0.6725481389       -6.7745324889
 C        -9.6828688321       -2.3909320044       -8.1502364646
 C        -9.4260556873       -3.9569475992       -7.8360912688
 O        -9.5763480882       -4.8477425652       -8.6247503964
 C        -9.1020630030       -4.2049302751       -6.3311868594
 C        -8.4579074060       -5.5556886629       -6.0433200291
 C        -6.9298416210       -5.6392884821       -5.8652765814
 O        -6.1369784676       -4.7346858651       -6.2742157348
 C        -6.3646758542       -6.9815685401       -5.3642256630
 C        -5.8963200041       -6.6025110461       -3.7539328969
 O        -5.9704211748       -7.4759655044       -2.9652217452
 C        -5.4125885191       -5.1515070923       -3.3773742004
 C        -5.2792324929       -4.7241566573       -1.9209650949
 C        -6.2627577289       -3.5814925818       -1.5323210737
 O        -7.1620426251       -3.3347785859       -2.3249582644
 C        -5.9719975047       -2.6449926125       -0.3585529922
 C        -5.1248015773       -1.5248943834       -0.9875748162
 O        -3.9879283675       -1.6748768085       -1.2211345948
 C        -5.8779047631       -0.1568043850       -1.2609307822
 C        -4.8585772966        0.9290550396       -1.6242170524
 C        -4.1578062144        1.3642363934       -0.3263888427
 O        -4.7934080916        1.3243257398        0.6930338649
 C        -2.6028356434        1.8231979423       -0.4149561154
 C        -1.9337179307        2.1106281670       -1.7830547577
 O        -2.4058709827        1.6852027369       -2.8337800961
 C        -0.7811377124        2.9780732366       -1.8349146836
 C        -2.5627052004        3.1097272406        0.5058019796
 C        -1.7859720286        0.7652684245        0.2822611491
 C        -7.3179334697       -2.1570761802        0.2194938139
 C        -5.0727602263       -3.4533220160        0.6654607677
 C        -7.2800716387       -8.1708188845       -5.1236863314
 C        -5.1579567414       -7.4464402464       -6.2258834722
 C       -11.0145894021       -1.9240788327       -7.4897063526
 C        -9.7595024025       -2.1697872543       -9.7300418783
 C        -3.4655690957        0.6995983996       -7.1138696220
 C        -2.3956236980       -1.1461927181       -8.4802146997
 C         0.1536608215       -2.6211209341       -1.3513978231
 C         2.3790838463       -1.6355149803       -2.2622773537
 C         0.0033855078       -7.5841098576       -5.7251063261
 C         1.2639019870       -7.3893641190       -7.8848726496
 C        -4.5800439220       -4.8305314032      -12.0688916402
 C        -3.1893725904       -7.0073579602      -12.4845665672
 C         1.0691457692       -2.2233998813      -16.4664151824
 C        -0.5804069488       -0.5969696721      -15.5045003536
 C        -4.9289129799       -1.8496104810      -18.9624560665
 C        -5.0003892732       -0.8711275369      -21.3329475983
 C        -6.5486764824        5.6178272680      -19.3189838162
 C        -5.6310587033        5.8510632482      -21.6405362625
 C         0.1417739249        3.6933803242      -17.6474994341
 C         1.1436949053        5.7442279698      -18.8739730868
 H         2.7292096833        2.8819203045      -21.1336822508
 H         3.1323551160        3.9350077673      -19.7727446581
 H         2.3290021840        4.4862525872      -21.3049140081
 H        -0.9362248565        6.7424652220      -20.6245790186
 H        -1.4764338792        6.8400491411      -18.9634783385
 H        -3.1398630575        5.9582689594      -21.4917436834
 H        -3.2767425774        7.3770509498      -20.6556353821
 H        -7.1549280953        2.8602588441      -18.6243630281
 H        -5.4136686162        2.9331701060      -18.2580939998
 H        -6.6993394662        1.0804018593      -20.1923023363
 H        -6.6631821968        0.7081696699      -18.4656238231
 H        -1.6565196455       -2.6682068223      -21.0624070669
 H        -2.7102691824       -3.2711854743      -19.6815585156
 H         0.0569601693       -1.9415179704      -19.6311658172
 H        -0.5656884721       -3.3398907764      -18.8978367032
 H        -0.4702723194       -3.3706214104      -13.8677719660
 H         0.0802671172       -4.5102650343      -15.2005674726
 H        -1.3792246787       -6.0112323979      -14.2783194999
 H        -2.6564546258       -4.9158562384      -14.6626542026
 H        -0.6252382305       -6.3420849987      -10.8756305507
 H        -1.4760419679       -7.1572477784       -9.5704229663
 H        -1.2040631689       -4.4428055344       -8.7645722998
 H         0.3764554305       -5.2160379495       -9.1305396243
 H         3.0697932531       -5.3390900936       -5.7923773388
 H         2.2567087510       -6.1376925548       -4.5353570708
 H         2.4664497041       -3.1524763311       -5.1923647505
 H         3.4296534771       -3.9312990549       -3.9008591186
 H        -1.7445690447       -1.2478763860       -2.8793041038
 H        -1.4009537999       -2.5941581493       -3.9616624467
 H        -1.3062810093       -0.1714694384       -5.6599568335
 H        -2.6770269720        0.1247030413       -4.6447510589
 H        -5.8835897508        0.2953653462       -8.3505430141
 H        -6.5074599928       -0.4213723853       -6.7857214573
 H        -7.0035699617       -2.4264476845       -8.9031165509
 H        -7.5409785667       -0.8571763800       -9.5262987749
 H       -10.0867367700       -4.0695884106       -5.7815401679
 H        -8.4211123942       -3.4085237852       -5.9098197988
 H        -8.7132610838       -6.3124096647       -6.8411187523
 H        -8.9843080868       -5.9462983612       -5.1316267420
 H        -6.1556522088       -4.5006001086       -3.8965411539
 H        -4.5044137687       -5.0224763322       -3.9792921273
 H        -4.2129764547       -4.5221909611       -1.6162136002
 H        -5.5860147653       -5.6256209129       -1.2534095967
 H        -6.5737681353        0.1239497685       -0.4576213077
 H        -6.4983152764       -0.2536398225       -2.1655024435
 H        -5.3965299629        1.8398221968       -2.0150246628
 H        -4.1408362204        0.6250945854       -2.3685716623
 H        -0.1156649463        2.9820091121       -0.9709907302
 H        -1.0201095129        4.0530899388       -1.7524191189
 H        -0.1718683444        2.8067709035       -2.7281860831
 H        -1.6577518693        3.1752746535        1.0633863903
 H        -3.3027073964        2.8088726520        1.2962506504
 H        -2.7074189481        3.9523969182       -0.2066758243
 H        -2.1286777341        0.5555758642        1.2580941965
 H        -0.7150862610        0.9584614019        0.2095354170
 H        -2.0229379174       -0.1840878532       -0.2866759206
 H        -8.0378193594       -2.9577566429        0.4761023919
 H        -7.7511921376       -1.4968888492       -0.4616602426
 H        -7.2165465647       -1.5683922308        1.1033146996
 H        -5.4073100704       -4.5265984182        0.6569884351
 H        -5.1849132970       -3.0105597638        1.6672761657
 H        -4.0265102347       -3.2532856459        0.3558737953
 H        -8.2368017155       -7.9484722164       -4.6639701172
 H        -6.7648203522       -8.9301228972       -4.4907518303
 H        -7.4930854469       -8.7324981642       -5.9712682898
 H        -5.5124816534       -7.4459224930       -7.2728423768
 H        -4.7880233337       -8.4339900347       -5.9574973387
 H        -4.3205445222       -6.7881025901       -6.1450026197
 H       -11.8768794790       -2.4665038617       -7.7873375792
 H       -11.2329776503       -0.8550992006       -7.5683919693
 H       -10.9388159767       -2.3164707616       -6.4926610231
 H        -8.7936283590       -2.6234497242      -10.1655992314
 H        -9.7402308978       -1.1160254422       -9.9175783433
 H       -10.6869806869       -2.6402536952      -10.1658735664
 H        -4.0148260145        1.1870753074       -7.9243580634
 H        -2.5359294160        1.1374833263       -6.9547169006
 H        -4.0778342422        0.8191404913       -6.2126540604
 H        -1.3740981787       -0.9809595744       -8.2743135938
 H        -2.6926802195       -0.6204464596       -9.3955816019
 H        -2.2882355750       -2.1623864532       -8.7812789119
 H         0.8307727263       -3.2453048747       -0.8063496002
 H        -0.7414088918       -3.2750492165       -1.6727207553
 H        -0.0777931654       -1.6515684278       -0.8794437491
 H         3.0164342418       -1.6886530317       -3.0781692402
 H         2.9384805160       -2.2536267854       -1.4652329934
 H         2.2717913263       -0.5802831803       -1.9403449595
 H        -0.5848383661       -7.0808016028       -4.8964826069
 H         0.9422206771       -7.9724491963       -5.2184798089
 H        -0.5946172745       -8.4037800792       -6.0130285145
 H         2.0709332036       -6.6768457827       -8.4215747331
 H         0.5255669776       -7.8382297833       -8.5540585183
 H         1.7507069283       -8.2032897293       -7.3416156288
 H        -5.4565622550       -5.1358124903      -11.4358374666
 H        -4.8934785656       -4.9880991016      -13.0981499583
 H        -4.4238058991       -3.8125737588      -11.9949594792
 H        -3.5128635043       -7.8253565751      -11.8134234997
 H        -2.2362829902       -7.2380960346      -12.8708489891
 H        -3.9342366848       -6.9473901885      -13.2106544577
 H         1.5305131099       -2.5182964455      -15.4768179556
 H         1.6497099916       -1.3775617319      -16.8803087895
 H         1.1382365646       -3.0321456956      -17.2008869032
 H        -1.3432287219        0.1475405925      -15.8626020568
 H         0.3093536047        0.0309358179      -15.3699199267
 H        -1.0547987003       -0.9657435594      -14.5646887303
 H        -5.0575491699       -2.7139087380      -19.5417475076
 H        -5.8524190665       -1.5614469980      -18.5412310146
 H        -4.4309299572       -2.1624658505      -18.0814311011
 H        -6.1275975275       -1.0169892551      -21.1966782234
 H        -4.6497068836       -1.8116978040      -21.7721405141
 H        -4.7469403407       -0.1369494671      -22.1165591958
 H        -6.3862550998        5.3441583320      -18.2446044703
 H        -7.5859705984        5.4426921413      -19.6819475635
 H        -6.4859986309        6.7338064274      -19.3375030336
 H        -4.8103619522        5.5378721695      -22.1721821764
 H        -5.7519550897        6.8952416478      -21.5446399776
 H        -6.5893019537        5.6217638033      -22.1580244342
 H        -0.8797924713        3.6361170511      -17.2970963841
 H         0.6857179805        4.1037149695      -16.8354478881
 H         0.3843525862        2.6035596885      -17.8161131169
 H         1.2307456398        6.4220085712      -19.7464317256
 H         2.2250066142        5.5492254648      -18.6923253441
 H         0.8384347825        6.4269829637      -18.0127131301
 Na       -1.6083159432        1.5146342474      -19.6910197844
 Na       -3.9218998597       -4.6597302743       -7.2441400587
