232

 C         2.4795684995        3.7608256343      -20.5495760021
 C         1.0778992933        3.4588571909      -19.9746467003
 O         0.4920385007        2.4939055474      -20.4437695948
 C         0.2977241269        4.4639688827      -19.0148454849
 C        -1.1821845410        4.7758501930      -19.6930787958
 O        -1.9119625750        3.8212065342      -20.1104651595
 C        -1.7191974164        6.1760758735      -19.8235868417
 C        -3.1374682632        6.2353055107      -20.4208896993
 C        -4.1220462429        5.3275407064      -19.6892222993
 O        -3.8858174294        4.9254706658      -18.5617950984
 C        -5.5515719649        5.1639262845      -20.2619228408
 C        -5.7750634847        3.4761067086      -20.3459294466
 O        -5.7564372269        3.0040981259      -21.4389617807
 C        -6.0572635503        2.7898953690      -19.1141287841
 C        -6.0767245603        1.2445466040      -19.3351110437
 C        -4.6453484013        0.6187211332      -19.3170346478
 O        -3.7709556402        1.1670749322      -18.6990197421
 C        -4.3989061020       -0.9525382847      -20.0271995171
 C        -2.8219302299       -1.0516849679      -20.3660489306
 O        -2.1371311232       -0.2502760825      -20.9629210937
 C        -2.2211429296       -2.4458755850      -20.0266204584
 C        -0.8048240343       -2.2134940788      -19.2223481025
 C        -0.9312368199       -1.2998293599      -17.9594717634
 O        -1.3246040655       -0.1414105216      -18.0683543199
 C        -0.4597960429       -1.7429312193      -16.4884018524
 C        -1.3133799454       -2.9768116020      -15.9675901303
 O        -2.3858286368       -3.2676179353      -16.5059485507
 C        -0.7583024255       -3.9449057503      -14.9871712995
 C        -1.8295005579       -4.9332013895      -14.3019470451
 C        -2.2983367777       -4.5469795154      -12.7714377871
 O        -1.9586051877       -3.5249884986      -12.2627082232
 C        -3.1711804878       -5.5327054748      -12.0022854556
 C        -2.7643832420       -5.6609043711      -10.3650040353
 O        -3.5320182248       -5.4893710196       -9.4668921469
 C        -1.2529709264       -6.0109512688      -10.1505341866
 C        -0.7169623880       -5.2617150337       -8.8692730098
 C        -0.8345742672       -6.0402908422       -7.5872105653
 O        -1.9422595719       -6.0761672873       -6.9831723688
 C         0.4779805864       -6.6027601246       -6.8378011959
 C         1.0015486386       -5.2283812747       -6.2845280643
 O         0.4560527750       -4.2091103253       -6.5370539032
 C         2.1840473461       -5.3158159886       -5.3394706631
 C         2.3830836655       -4.0629202331       -4.4883412559
 C         1.1993527855       -3.7565264687       -3.5030817144
 O         0.3136695841       -4.5704258328       -3.3044619785
 C         1.0823944784       -2.3771914894       -2.6707287416
 C         0.2835168044       -1.3297344791       -3.5986276996
 O         0.7900126139       -0.4399756926       -4.2355146595
 C        -1.2207874546       -1.6496126746       -3.8237824330
 C        -1.8741636522       -0.7389282701       -4.8878396469
 C        -2.8144136534       -1.5747803137       -5.9253466869
 O        -2.8604370538       -2.7507960097       -5.9009709433
 C        -3.4462336551       -0.7666883714       -7.2564144597
 C        -4.7022216366       -1.4482826929       -7.7674737910
 O        -4.8287518208       -2.6156548813       -8.0822015082
 C        -5.9784765650       -0.6363399773       -7.8591609034
 C        -7.1031342625       -1.3952252022       -8.5488686361
 C        -8.4402712575       -1.4698522720       -7.6049158886
 O        -8.5757210440       -0.8556168661       -6.6169278067
 C        -9.5636210063       -2.3692416565       -8.1185390343
 C        -9.3705667900       -3.8134107703       -7.7852305243
 O        -9.6840784801       -4.7376554494       -8.5592059491
 C        -9.0376307741       -4.2105762169       -6.3023935544
 C        -8.4190373950       -5.5432127937       -6.0594545734
 C        -6.8805459484       -5.7311209903       -5.9599648620
 O        -6.1883385234       -4.7720858631       -6.2004702438
 C        -6.2884904426       -6.9485488042       -5.2680717044
 C        -5.8396356851       -6.5942217013       -3.7819682586
 O        -5.8291234840       -7.4631953691       -2.9577221539
 C        -5.4456946177       -5.0897300750       -3.5301292335
 C        -5.3135454922       -4.6677377666       -2.0707593853
 C        -6.2914291432       -3.4768965433       -1.7305361781
 O        -7.2962805842       -3.1920740718       -2.3718485538
 C        -5.9084162294       -2.6766488144       -0.3828143815
 C        -5.0774979221       -1.5010757916       -0.9204506234
 O        -3.8965681508       -1.7136374969       -1.3030213520
 C        -5.8145086204       -0.2116433299       -1.3219212082
 C        -4.9143604887        0.9067648321       -1.6370225474
 C        -4.2066862317        1.4615082350       -0.2590468428
 O        -4.7860415107        1.4193710561        0.7839621448
 C        -2.7241203311        1.9308878040       -0.3378685915
 C        -2.0459787070        2.0828164444       -1.8151881371
 O        -2.4965523009        1.5930828357       -2.8447172109
 C        -0.7061171643        2.9546585384       -1.8881555511
 C        -2.5417872514        3.2527756388        0.5572724847
 C        -1.7933823684        0.7854822269        0.3320489420
 C        -7.2703669281       -2.2910422441        0.3113395698
 C        -5.1000007067       -3.5605681959        0.6050638613
 C        -7.2869076394       -8.1322039690       -5.0867841939
 C        -5.0991227182       -7.4907069339       -6.0573111033
 C       -10.8862455951       -2.0141648812       -7.4009056543
 C        -9.8764176661       -2.0334320379       -9.6982250855
 C        -3.4461723506        0.7550668505       -7.2677213021
 C        -2.3254431766       -1.1948365989       -8.3592616260
 C         0.1619188867       -2.6707764075       -1.4646271065
 C         2.3979921200       -1.8185527886       -2.1868233369
 C         0.1459977597       -7.5737056614       -5.5656902290
 C         1.2876899933       -7.3089615031       -7.8963605477
 C        -4.5487858485       -4.9689741324      -12.0896626536
 C        -3.1478013563       -7.0600930572      -12.4484144903
 C         1.0023391549       -2.1717403609      -16.5322201883
 C        -0.5560003955       -0.5544130802      -15.4525538942
 C        -4.7120961658       -1.9979593234      -18.9634141266
 C        -5.1677013655       -0.9324969504      -21.2882489543
 C        -6.6185595662        5.8015962449      -19.2717905122
 C        -5.7197990756        5.7699717787      -21.6695232579
 C         0.0629273817        3.9026187219      -17.5642535168
 C         1.1014198143        5.7622412628      -18.8029185106
 H         2.8014986836        2.8708805776      -21.0647090516
 H         3.1727459070        4.0708709888      -19.8027033244
 H         2.3519021203        4.3982077090      -21.3423756815
 H        -1.1083139754        6.8374772044      -20.3799144764
 H        -1.7791508571        6.5478949460      -18.7008046138
 H        -3.1413580046        6.1131913449      -21.4416899079
 H        -3.5508028178        7.2712120595      -20.3923519170
 H        -6.9878317554        3.2121665473      -18.7007582728
 H        -5.2135508140        3.0681167378      -18.4224580230
 H        -6.5738442732        1.1992654142      -20.3006751490
 H        -6.6715347621        0.7787304359      -18.5821428165
 H        -2.0245460793       -2.9207938272      -20.9787832782
 H        -2.7725086547       -3.1601031038      -19.4022255375
 H        -0.0999237609       -1.7247529443      -19.9113379990
 H        -0.3957208496       -3.2146400690      -19.0497767750
 H        -0.3203928124       -3.4435837457      -14.1223607248
 H        -0.0005713050       -4.4780937840      -15.5107099632
 H        -1.4188042273       -5.9334594190      -14.1621284554
 H        -2.7906054488       -5.0511845690      -14.8710898298
 H        -0.6313376936       -5.6856976381      -10.9703564732
 H        -1.0918217285       -7.1025858719       -9.9627864476
 H        -1.4070975408       -4.3970125364       -8.5894388253
 H         0.3133643985       -4.9553151122       -9.1140815580
 H         3.0675996521       -5.5534562135       -5.8366159649
 H         2.0351338295       -6.1192600581       -4.6546650067
 H         2.6074064151       -3.2300139293       -5.1925047214
 H         3.2857320024       -4.2105985055       -3.8792390221
 H        -1.7943557465       -1.5456158818       -2.9986644235
 H        -1.1917090166       -2.6789619400       -4.1438612004
 H        -1.3260774210        0.0384642515       -5.4717446864
 H        -2.6457649000       -0.1718173742       -4.3342961238
 H        -5.8724575106        0.4187450799       -8.1896608683
 H        -6.3714193548       -0.6068292670       -6.7367115566
 H        -6.8443180303       -2.4089787163       -8.6010819325
 H        -7.3736697619       -1.1422972585       -9.6214241054
 H        -9.9309913310       -4.1555441358       -5.6971269375
 H        -8.3761182067       -3.4506390126       -5.9611022879
 H        -8.9387604158       -6.2000983501       -6.7739435820
 H        -8.8650398331       -5.8696794316       -5.1244231737
 H        -6.1411235652       -4.4853855589       -4.0673689025
 H        -4.5285125635       -4.9786118204       -4.0998957301
 H        -4.2714118738       -4.2206595772       -1.8951779741
 H        -5.3396675612       -5.5764174666       -1.3947793848
 H        -6.5086024540        0.0259177794       -0.5240307127
 H        -6.4182399830       -0.3836609375       -2.2090601607
 H        -5.5059414655        1.7199100623       -2.0896354944
 H        -4.1403580101        0.5814379557       -2.3997537850
 H        -0.3472026691        3.0728566355       -0.8317205605
 H        -0.5730820228        3.9919655400       -2.2060741788
 H         0.0637312948        2.3697935749       -2.3321606629
 H        -1.6907780348        3.1660033365        1.2027625990
 H        -3.4057366983        3.2538111374        1.3011582884
 H        -2.3585051447        3.9954486340       -0.2262426260
 H        -2.1408096587        0.6257695562        1.3874738586
 H        -0.7239658733        1.0482346369        0.2105145895
 H        -1.9516193027       -0.2089085571       -0.1434007769
 H        -7.7900199663       -3.0916602841        0.8061095677
 H        -7.9628760044       -1.8558801117       -0.4926699847
 H        -7.1344918468       -1.5320722974        0.9974028767
 H        -5.5584219901       -4.5006668330        0.7669645820
 H        -4.9254669512       -2.9996473999        1.5232035868
 H        -4.1479854216       -3.6235793865        0.0963220048
 H        -8.3154096429       -7.8722598208       -4.7882514114
 H        -6.9476137110       -8.9513115258       -4.4704984394
 H        -7.3490649182       -8.6300827819       -6.0199547713
 H        -5.4184647484       -7.6923083376       -7.0798090044
 H        -4.7854188151       -8.3548628678       -5.5501177294
 H        -4.1660987140       -6.8613365645       -6.0385248669
 H       -11.8050181157       -2.4615704402       -7.8915358136
 H       -11.0440643524       -0.9425404492       -7.3449252574
 H       -10.9650511294       -2.4654924337       -6.4016242748
 H        -9.0119921692       -2.3475701287      -10.3494868031
 H       -10.1054938563       -0.9476808014       -9.8993828724
 H       -10.7199298323       -2.6797054394       -9.8724684039
 H        -4.0471255916        1.1488373027       -8.0050618898
 H        -2.4659468700        1.1076774465       -7.4034121712
 H        -3.7125986872        1.1740873143       -6.3112444391
 H        -1.3136652993       -1.0273613750       -8.1958295014
 H        -2.5997800666       -0.7809976295       -9.3815780524
 H        -2.2472959437       -2.2704550717       -8.5439793113
 H         0.7278406823       -3.1037050936       -0.6701120729
 H        -0.5032095326       -3.4001100167       -1.8939296035
 H        -0.3065533393       -1.7553050189       -1.2009287545
 H         3.0992319384       -1.7532743276       -3.0030594829
 H         2.8234810561       -2.3553234598       -1.3550963529
 H         2.2025781175       -0.7735338936       -1.8766899133
 H        -0.5099269962       -7.1415768689       -4.8052067752
 H         1.0776769491       -7.8531768774       -5.0432456687
 H        -0.3654942199       -8.5380491967       -5.8093445158
 H         1.8271481844       -6.5727598632       -8.5069023645
 H         0.5993851805       -8.0182953979       -8.4718176173
 H         1.9330952889       -7.9348009386       -7.3441541761
 H        -5.2374984895       -5.4227848351      -11.3258632967
 H        -4.9610895844       -5.2888280410      -13.0665149262
 H        -4.6235024294       -3.8702813571      -12.0669617749
 H        -3.7304399355       -7.7657347459      -11.8035781189
 H        -2.0887286578       -7.3028343835      -12.5038239091
 H        -3.6827571356       -7.1322569297      -13.3881674602
 H         1.2861671680       -2.6356590426      -15.4984184989
 H         1.6785667184       -1.2792630785      -16.7699454561
 H         1.1763818753       -2.9082558925      -17.2530525535
 H        -1.6095818442       -0.2341508642      -15.3882506091
 H        -0.0347601563        0.3164159771      -15.8036229133
 H        -0.3619730446       -0.8292261465      -14.4598215643
 H        -5.0352343786       -2.9469853212      -19.2956164915
 H        -5.4578149455       -1.6407119441      -18.3777304115
 H        -3.9848589444       -2.1738193401      -18.1627958534
 H        -6.1867976363       -0.6825513059      -21.1697964656
 H        -5.1127521556       -1.9663881633      -21.8190773496
 H        -4.6074884066       -0.2587850575      -22.1005024090
 H        -6.5211151145        5.5249213261      -18.2237929478
 H        -7.6116601474        5.7659790621      -19.6577283902
 H        -6.4179499097        6.8008444229      -19.2495019065
 H        -5.2503515775        5.0245017209      -22.3488736033
 H        -5.4079111843        6.8139786304      -21.8091642415
 H        -6.7445700024        5.9583541745      -21.8708562768
 H        -0.9005094290        4.2550815748      -17.1117574300
 H         0.7638152172        4.4637665786      -16.8636685766
 H         0.0830022140        2.8222434910      -17.3829514108
 H         1.4543516151        6.4272798356      -19.6392447157
 H         2.0069349983        5.6936661052      -18.1511059378
 H         0.4440363153        6.4381352003      -18.2467454302
 Na       -1.5929953665        1.5874274334      -19.6806269358
 Na       -3.8245721524       -4.6699177711       -7.2494517406
