232

 C         2.4275901570        3.8958165389      -20.4301756051
 C         0.9987231584        3.4774883414      -20.0648368637
 O         0.5393138628        2.4210336342      -20.3558467908
 C         0.1946446636        4.5452112492      -19.0529760595
 C        -1.2000444835        4.7324643693      -19.6847897493
 O        -1.7944698623        3.8243909415      -20.2081494714
 C        -1.8291119608        6.1042911347      -19.6713338643
 C        -3.1466722589        6.1678807288      -20.3556888074
 C        -4.1295798163        5.3345039649      -19.6017716732
 O        -3.8369969522        4.7499922437      -18.5915540355
 C        -5.6761576815        5.1338717846      -20.3226142425
 C        -5.8859986165        3.5556548439      -20.3460342873
 O        -5.8594405314        3.0070486208      -21.4883484942
 C        -5.8755322929        2.7445665603      -19.0840761399
 C        -5.9238757203        1.2001315557      -19.3832906277
 C        -4.6150665560        0.5466629431      -19.3616022692
 O        -3.6913593353        1.0418532542      -18.6143873599
 C        -4.3778355215       -0.8625911470      -20.0485327207
 C        -2.8125364295       -1.0993941780      -20.3911343793
 O        -2.2046246690       -0.2232324460      -20.9308501680
 C        -2.0969011078       -2.4233751887      -19.9387393025
 C        -0.8101412476       -2.0383736711      -19.2112740220
 C        -0.9695306756       -1.2258329657      -17.9927642856
 O        -1.3559225856       -0.0741563351      -17.9996784841
 C        -0.5263655583       -1.8199440026      -16.5740559151
 C        -1.4034869703       -3.0143881745      -16.0540563019
 O        -2.4922633617       -3.1834109039      -16.5317442708
 C        -0.7280642412       -3.9331755003      -14.9247318080
 C        -1.8956259990       -4.8139576244      -14.2401808818
 C        -2.2513827187       -4.5331571935      -12.7832248555
 O        -1.9603020539       -3.5027074497      -12.2181373930
 C        -3.1822606972       -5.6102323533      -11.9475856845
 C        -2.7055223121       -5.5505756154      -10.4906615503
 O        -3.5861357885       -5.4015553028       -9.6348102003
 C        -1.2437858786       -5.7292940096      -10.1983688703
 C        -0.7029884800       -5.2298040519       -8.8444228536
 C        -0.9697445508       -6.0849322228       -7.5003326449
 O        -2.0744391251       -6.1524516791       -6.9060781880
 C         0.3937681999       -6.5978763221       -6.9166614792
 C         1.0313382315       -5.2416608302       -6.2700687612
 O         0.5849017876       -4.1817558380       -6.6578377291
 C         2.2274356687       -5.2946453343       -5.2947460899
 C         2.3367947106       -4.0077733640       -4.4424263374
 C         1.1647448328       -3.8197027779       -3.5764277304
 O         0.2589593521       -4.6491433058       -3.5042638140
 C         1.0399695602       -2.4459862148       -2.7542974607
 C         0.2714575303       -1.4736435612       -3.6883525508
 O         0.8096201712       -0.4594573425       -4.0579160946
 C        -1.2708207321       -1.8513021821       -3.9207314328
 C        -1.9134465814       -0.8587552712       -4.8381758452
 C        -2.8049556770       -1.6116614809       -5.9920851082
 O        -3.0444611543       -2.7432927137       -5.7456978795
 C        -3.2413847114       -0.8629455957       -7.2429181788
 C        -4.6134397781       -1.5090388217       -7.6813085037
 O        -4.6644747273       -2.6605185388       -8.1296683461
 C        -5.9295445341       -0.5655093543       -7.7593661217
 C        -7.1149708705       -1.3723651747       -8.3578939669
 C        -8.4522001927       -1.4505509713       -7.6023812473
 O        -8.4507412988       -1.0107781143       -6.4472856970
 C        -9.6392049846       -2.2687707444       -8.1008950356
 C        -9.3289994775       -3.8136971036       -7.8073332221
 O        -9.7003312353       -4.6847037759       -8.5321485624
 C        -8.8383895405       -4.1714326214       -6.3112960056
 C        -8.4210775541       -5.6190514203       -6.0384964914
 C        -6.8681040884       -5.7135560224       -5.9541927591
 O        -6.1707352933       -4.8310180438       -6.4049470958
 C        -6.3074590246       -6.9910624992       -5.2480767842
 C        -5.8151323001       -6.5438330401       -3.7967973851
 O        -5.6061083031       -7.3007335910       -2.8422458340
 C        -5.4947747618       -5.0159150550       -3.6908200049
 C        -5.3606779623       -4.5664336870       -2.2191336173
 C        -6.3093826007       -3.5032029497       -1.7908354714
 O        -7.2545951671       -3.1168764412       -2.4103979410
 C        -5.9070280843       -2.8361674303       -0.4806287175
 C        -5.1145834972       -1.5797735285       -1.0205138428
 O        -3.8869225165       -1.7037954858       -1.2814466984
 C        -5.8291374658       -0.2770091592       -1.2942779938
 C        -4.9267631645        0.9317411862       -1.5012838075
 C        -4.1523957709        1.4791516850       -0.3325848855
 O        -4.7390809437        1.5433289800        0.7557008912
 C        -2.7266940530        2.0697544115       -0.3832195176
 C        -2.0998683940        2.1471539210       -1.6950201127
 O        -2.4928706573        1.6202116166       -2.7059804052
 C        -0.7317286749        2.7958692479       -1.8638760501
 C        -2.5440276733        3.3219041202        0.4726212481
 C        -1.9141514563        0.8314679191        0.3112892291
 C        -7.1798925856       -2.3896411373        0.3717811711
 C        -5.0913409832       -3.6348705410        0.5666362331
 C        -7.3968369604       -8.1495865230       -5.1554394111
 C        -4.9833363337       -7.5086073076       -5.8658669511
 C       -10.8668157262       -1.9313223527       -7.2900026224
 C        -9.9491300785       -2.0854681990       -9.6165291636
 C        -3.3355616324        0.7340021820       -7.2328660159
 C        -2.2170922095       -1.2655867582       -8.2886984771
 C         0.1360754232       -2.6951363109       -1.4560272145
 C         2.4504647281       -1.9449442355       -2.2549202138
 C         0.1470745284       -7.4390111547       -5.6983001080
 C         1.4236101313       -7.2443422939       -7.8515580134
 C        -4.6862468386       -5.1638409438      -12.0269814492
 C        -3.0706473195       -7.0903241836      -12.4471259254
 C         1.0343823615       -2.1398210573      -16.6808988443
 C        -0.6391118333       -0.6480237794      -15.4983614892
 C        -4.7749355365       -1.8761272317      -18.9388677700
 C        -5.2996284619       -1.0682984013      -21.2811044573
 C        -6.5853106011        5.8842049287      -19.2992673805
 C        -5.8818041808        5.6572441577      -21.7214235074
 C        -0.1160923693        3.9733000571      -17.6786978326
 C         0.9950907592        5.8333295931      -18.8786988942
 H         2.9417932481        3.0091464475      -20.8042226531
 H         2.8474349019        4.2375805404      -19.5139251034
 H         2.4853239415        4.5838567690      -21.2743654037
 H        -1.1628914850        6.8457435141      -20.2271146749
 H        -1.8512109055        6.3630415767      -18.5908458071
 H        -3.0177357882        5.7920645308      -21.3906627521
 H        -3.5556275763        7.1300023409      -20.5722148390
 H        -6.8379711114        3.1458565266      -18.6039354324
 H        -5.0686438357        2.9032154421      -18.3601184410
 H        -6.3903806370        1.1264362718      -20.3616572308
 H        -6.5658777520        0.7085618971      -18.6206417490
 H        -1.8210859800       -3.0282517030      -20.8028943972
 H        -2.6066446061       -3.0292250066      -19.2742824193
 H        -0.1339892033       -1.6093884392      -19.9332915734
 H        -0.3605686181       -3.0746183825      -18.9320064452
 H        -0.1022804685       -3.4594222996      -14.2184190299
 H        -0.0990958360       -4.6048068430      -15.4833249275
 H        -1.6911478051       -5.8880283743      -14.2323802316
 H        -2.8636734052       -4.6599328845      -14.8751214127
 H        -0.6425840366       -5.1317797689      -10.9003675994
 H        -0.9709897129       -6.8108298591      -10.2886601214
 H        -1.1707669528       -4.1712321258       -8.5830399985
 H         0.3838617956       -5.1209658048       -9.1215236039
 H         3.2241050633       -5.5082665327       -5.8859729816
 H         2.1380020227       -6.1308114350       -4.6248147882
 H         2.4346784716       -3.1770914721       -5.1163447171
 H         3.2009990687       -4.0248656588       -3.8081703217
 H        -1.7472851362       -1.8327772915       -2.9156790257
 H        -1.3103469027       -2.8314471364       -4.3791147507
 H        -1.1376778687       -0.4000423653       -5.4643405564
 H        -2.3982796786        0.0219558342       -4.3529142171
 H        -5.7253239919        0.0919805779       -8.5683789844
 H        -6.2111475348        0.0658423242       -6.8775453967
 H        -6.8482538463       -2.3920293357       -8.6339529170
 H        -7.4076310041       -0.8962030364       -9.2426416673
 H        -9.6322711985       -3.9640489554       -5.6668129974
 H        -8.0613677991       -3.4839711716       -6.1165536664
 H        -8.8182161442       -6.0943516610       -6.9175996680
 H        -8.9761294390       -6.0726115692       -5.2572451097
 H        -6.2744400925       -4.5141438072       -4.2072411739
 H        -4.6046860854       -4.8384507429       -4.3053566302
 H        -4.3509846097       -4.1735876257       -1.9647223631
 H        -5.4491835225       -5.4566966726       -1.6361601632
 H        -6.4378666039       -0.1851151670       -0.4075521749
 H        -6.4991576444       -0.3711642354       -2.1503143083
 H        -5.4669764976        1.7999747838       -1.8834117525
 H        -4.1497715977        0.6421253354       -2.2629506828
 H        -0.3392307111        3.4541590798       -1.1134089264
 H        -0.7528383319        3.4973809976       -2.7118020774
 H         0.0388311621        2.0489351230       -2.0783296732
 H        -1.6418551263        3.2385244051        1.1553206247
 H        -3.3483048194        3.2842539666        1.1226791808
 H        -2.3662756501        4.0779491749       -0.2452888026
 H        -2.4336299822        0.8082138944        1.3132756643
 H        -0.8084594299        1.0117703034        0.3589144246
 H        -2.0546168214       -0.1444880554       -0.1224080679
 H        -7.5080925453       -3.1204164486        1.0792016926
 H        -8.0866614498       -2.1972910567       -0.2507790675
 H        -6.9264525542       -1.4212237267        0.9727558119
 H        -5.6376302392       -4.4395392032        0.9689904723
 H        -4.7822189732       -2.9471740305        1.3071759506
 H        -4.2449725810       -4.0130674029        0.0531911126
 H        -8.3192269361       -7.8746619076       -4.6702009536
 H        -7.0459912503       -9.0331126436       -4.7004679895
 H        -7.6317780938       -8.5916067305       -6.2030070566
 H        -5.0853517079       -7.8476925991       -6.8854130167
 H        -4.5554380588       -8.2225148103       -5.1437169388
 H        -4.2089403971       -6.7340037776       -5.8007288913
 H       -11.8022633480       -2.4355777573       -7.6118784584
 H       -11.0821294136       -0.8115454784       -7.3051829699
 H       -10.7720887802       -2.1848521623       -6.1777544557
 H        -9.0791326370       -2.2607777029      -10.1626915770
 H       -10.3049519293       -1.0517518969       -9.9058798647
 H       -10.6554273978       -2.8845584059       -9.8094504081
 H        -3.8623794138        0.9732363204       -8.1356578398
 H        -2.3638642320        1.3272585475       -7.2305209540
 H        -3.8124342178        1.1316233352       -6.3691394550
 H        -1.1169983957       -1.0137380200       -8.1279403237
 H        -2.4350746504       -0.9772174925       -9.2996095525
 H        -2.0617913789       -2.3639876441       -8.3249024542
 H         0.7864438717       -3.0642776349       -0.6629258090
 H        -0.5617713285       -3.3690787947       -1.7161914089
 H        -0.2457576611       -1.7559800343       -1.1472973938
 H         3.2400908298       -1.6774612444       -3.0755687924
 H         2.7696856084       -2.6357281175       -1.5493496032
 H         2.3191356587       -1.0403603155       -1.7112345340
 H        -0.4123285420       -7.0701099217       -4.8873243054
 H         1.0847411182       -7.7483667772       -5.3192433308
 H        -0.3735329261       -8.3989855468       -5.9883813820
 H         1.5935898519       -6.5856660025       -8.5764678279
 H         1.1492560628       -8.2242003897       -8.2365705823
 H         2.3147777128       -7.3897536813       -7.2154472920
 H        -5.2679235887       -5.6857607684      -11.2960503353
 H        -5.1585404392       -5.3708483322      -13.0183048971
 H        -4.8161941964       -4.0234552268      -11.8151457119
 H        -3.9318544332       -7.6725077144      -12.1523618740
 H        -2.0691433294       -7.4842375244      -12.0959295182
 H        -3.2259654485       -7.1250373741      -13.5789694891
 H         1.3018234654       -2.5436999015      -15.7208545715
 H         1.6124031478       -1.2495599317      -16.9707233989
 H         1.3275142398       -2.9944688643      -17.3790378969
 H        -1.5412170023       -0.6635525327      -14.9530670666
 H        -0.6516006460        0.2199730707      -16.1252667419
 H         0.0817578935       -0.5717636765      -14.7355298464
 H        -4.7362558192       -2.8960769987      -19.3538369018
 H        -5.8791592840       -1.8105756120      -18.5575767007
 H        -4.2132974086       -1.8996844137      -18.0404569315
 H        -6.3622507411       -0.8487316461      -21.0857461626
 H        -5.2205457260       -2.1424621806      -21.6011018839
 H        -4.9723560309       -0.5395370006      -22.1445868387
 H        -6.3686717980        5.5215663363      -18.3772023688
 H        -7.5912841215        5.8985509599      -19.5521705074
 H        -6.2933724221        6.9222885514      -19.2118388968
 H        -5.7372846887        4.8451503039      -22.5108392896
 H        -5.2772781531        6.5742852551      -21.8837996834
 H        -6.7889460423        6.2039596786      -21.7916405904
 H        -0.7757564101        4.7060127414      -17.1182808452
 H         0.7928356273        4.0941496261      -17.0138796590
 H        -0.5668652770        2.9920856547      -17.5960440017
 H         1.3999409293        6.2744488423      -19.7923150093
 H         1.7924176114        5.7917973421      -18.1481911336
 H         0.4060100215        6.6674628427      -18.5513019016
 Na       -1.5749433004        1.6497407619      -19.6832532182
 Na       -3.7754741620       -4.5763275398       -7.1997027443
