232

 C         2.5020174136        3.9664167504      -20.3415365909
 C         1.0278010426        3.5916862948      -19.8895067593
 O         0.6574348807        2.3866789529      -19.9391008743
 C         0.1520177807        4.5993706670      -19.1367587921
 C        -1.2500391834        4.8127459901      -19.8592161587
 O        -1.8431123531        3.9367630928      -20.5187337644
 C        -1.9140002498        6.1420582687      -19.7565804206
 C        -3.2971122284        6.1759672707      -20.4768895828
 C        -4.3548810191        5.2385573130      -19.7410112252
 O        -3.9316777132        4.7111608372      -18.7010591674
 C        -5.7412484251        5.0296418263      -20.2458932224
 C        -5.9052079231        3.4853726666      -20.4112632078
 O        -6.1814219707        2.9596068416      -21.4061107026
 C        -5.9067248648        2.6681658421      -19.0835412901
 C        -5.8940099046        1.2029090379      -19.4606684884
 C        -4.5682760686        0.5026142983      -19.3399451298
 O        -3.6780132907        1.0288319823      -18.8196452677
 C        -4.4337259997       -1.0202521537      -19.8736736286
 C        -2.9237014617       -1.1068086853      -20.3188763077
 O        -2.4029725063       -0.1796470130      -20.9734315809
 C        -2.0541187511       -2.3382718984      -19.9442318705
 C        -0.6919506777       -1.9303803435      -19.2722322103
 C        -0.9262870317       -1.1527973445      -17.9340640093
 O        -1.1753370130        0.0465616515      -17.9034040685
 C        -0.5286797500       -1.8328141912      -16.5572264288
 C        -1.4698046330       -2.9374936185      -16.0679748819
 O        -2.5518433171       -3.1473890343      -16.6343029318
 C        -1.0801357525       -3.7504503214      -14.8518486591
 C        -2.1291135440       -4.7283638215      -14.3978283383
 C        -2.4733200685       -4.5138999535      -12.8402992345
 O        -1.9212283995       -3.5817014679      -12.3459779149
 C        -3.2070812796       -5.6074299754      -11.8910400771
 C        -2.7697581772       -5.4476818205      -10.4098250723
 O        -3.5741384577       -5.0954508222       -9.5968990168
 C        -1.2161436846       -5.5375291066      -10.1269895853
 C        -0.8529352685       -4.9296021753       -8.6837603280
 C        -0.8797698000       -5.9202340137       -7.5539994823
 O        -1.9703888747       -6.2749020064       -7.1116915080
 C         0.3615452942       -6.4273832774       -6.8431232987
 C         1.1401644763       -5.1060222336       -6.3107786518
 O         0.8785138608       -4.0326957159       -6.7804617409
 C         2.2928634640       -5.2934536342       -5.3420826552
 C         2.3332864508       -4.0544362425       -4.4444948974
 C         1.0125894927       -3.9222145518       -3.6325292150
 O         0.1232070897       -4.7450298503       -3.7965487749
 C         0.9879001953       -2.6506223817       -2.6857377386
 C         0.1596159021       -1.5976215495       -3.5430873756
 O         0.7423023122       -0.5995471616       -3.8871850752
 C        -1.2897824791       -2.0629419226       -4.0393513322
 C        -1.8128368879       -1.0494627497       -5.0009731552
 C        -2.8423960943       -1.6597504947       -5.8446400080
 O        -3.3662673964       -2.7853363487       -5.5753175572
 C        -3.1551649814       -0.9497700789       -7.2489257261
 C        -4.5926095114       -1.5350446168       -7.8416259484
 O        -4.6627101211       -2.6544730055       -8.2420546392
 C        -5.8008186275       -0.7287525502       -7.6411199418
 C        -7.1056592345       -1.3620633313       -8.3208351686
 C        -8.3146317636       -1.5545282229       -7.3818966669
 O        -8.1857249466       -1.1173642391       -6.3010616047
 C        -9.6164365073       -2.1677090055       -7.8786734862
 C        -9.2754217860       -3.7542149035       -7.5807328780
 O        -9.5892521670       -4.5680197481       -8.4541136929
 C        -8.4977610287       -4.0618616336       -6.3320030549
 C        -8.2598484738       -5.6547683529       -6.2050348802
 C        -6.7781677052       -5.9000128371       -6.2206395746
 O        -5.9792100523       -5.3119832370       -6.9946871287
 C        -6.2478163305       -6.9906428658       -5.2661888798
 C        -5.7933969695       -6.3441726071       -3.8515979382
 O        -5.5392429604       -7.1339995880       -3.0052206494
 C        -5.7261138594       -4.8728284177       -3.7065390479
 C        -5.1898034153       -4.4071320095       -2.3601481513
 C        -6.1711100199       -3.4076941142       -1.7378987892
 O        -7.2004836566       -3.1107383840       -2.3619934969
 C        -5.8968376008       -2.8458458888       -0.3709089223
 C        -5.0911693902       -1.5629850289       -0.8488468612
 O        -3.9706546659       -1.6936625402       -1.2305161675
 C        -5.8656121291       -0.2020376210       -0.9590925307
 C        -4.9184002082        0.8662032338       -1.4796705617
 C        -4.2705954883        1.5771941940       -0.3327749994
 O        -4.8694517773        1.7258631066        0.6803933851
 C        -2.7450893979        1.9601843117       -0.3520444630
 C        -1.9930564651        2.1564239237       -1.7826197843
 O        -2.4479146813        1.6978184827       -2.8441686561
 C        -0.6589554371        2.7515497857       -1.8443308240
 C        -2.6210642407        3.3487943190        0.3684859436
 C        -1.9868334340        0.9187633071        0.4668604120
 C        -7.1967653546       -2.4596666495        0.3986156364
 C        -4.9304855340       -3.6966703469        0.4239935256
 C        -7.2614920929       -8.1748212652       -5.0752233918
 C        -4.9198411873       -7.5771940579       -5.7920978368
 C       -10.8755090445       -1.6619481915       -7.0823383925
 C        -9.8848661780       -2.1024054560       -9.3603743643
 C        -3.1045934611        0.6250494391       -6.9931863912
 C        -2.0040947448       -1.3400091449       -8.2135925300
 C         0.2201888326       -2.9450643872       -1.3886871343
 C         2.4004966464       -2.0586632036       -2.4669720077
 C        -0.0393451493       -7.5197886531       -5.7463711124
 C         1.4256607054       -7.0283268906       -7.7634182405
 C        -4.6414612023       -5.3180532628      -12.2044943143
 C        -2.8106248910       -7.0273082816      -12.4968269758
 C         0.9831836761       -2.2465162554      -16.7685081126
 C        -0.7063640152       -0.8408931626      -15.3283580477
 C        -5.0759685840       -1.8408563751      -18.7202676228
 C        -5.1008436374       -1.2467269319      -21.2454365704
 C        -6.6569253635        5.7272156971      -19.1921851486
 C        -5.9003480833        5.7699489885      -21.7233042171
 C        -0.2322223105        3.8878448596      -17.7011856378
 C         0.8324835517        5.9452865029      -18.9394129927
 H         2.9532091882        3.1296418695      -20.9301709334
 H         3.0686284728        4.2038739757      -19.3906465447
 H         2.4962037932        4.8048940954      -21.0526428174
 H        -1.2769553389        6.9050640137      -20.0768612372
 H        -2.1733059046        6.2389827529      -18.6817594057
 H        -3.2468508484        6.0679882605      -21.5812970792
 H        -3.7974161829        7.2053846175      -20.3190342807
 H        -6.7307719205        2.9668241668      -18.4865985707
 H        -5.0623021402        2.7939247303      -18.3912777559
 H        -6.3091503826        1.1643953629      -20.4914192830
 H        -6.6244843408        0.7186162811      -18.8064543673
 H        -1.9377365905       -2.9486028908      -20.8534560152
 H        -2.6075796799       -3.0036155231      -19.1821132100
 H        -0.2625492584       -1.2465074695      -20.0392366326
 H        -0.0532649663       -2.7412503498      -19.1932650005
 H        -0.7916147666       -3.0266207694      -14.0265622505
 H        -0.1181792061       -4.3177156395      -14.9855712603
 H        -1.8909137446       -5.7746127140      -14.6276068564
 H        -2.9315592522       -4.4301290266      -15.0223068919
 H        -0.6357392945       -4.9067963679      -10.7914833666
 H        -0.9580920339       -6.5848008059      -10.2121364844
 H        -1.5339915570       -4.1608236881       -8.5119855026
 H         0.0860388017       -4.4596067166       -8.8123636881
 H         3.1955288425       -5.3285370447       -5.8732308693
 H         2.2922233539       -6.2529455976       -4.7301896253
 H         2.5005765776       -3.2161417308       -5.1457633380
 H         3.2110361032       -4.1597942297       -3.7855257407
 H        -1.9244874298       -2.2986992760       -3.1824432121
 H        -1.0776275306       -2.9937845569       -4.6607301040
 H        -1.0601764214       -0.5375168579       -5.6042611101
 H        -2.3974312111       -0.2641156148       -4.5659749320
 H        -5.7051749057        0.3034121994       -8.0096451276
 H        -5.9491529121       -0.6474158198       -6.5840430697
 H        -6.8712512731       -2.4126936990       -8.6048984176
 H        -7.4804052591       -0.7369087576       -9.2482184691
 H        -8.9263954171       -3.5619312448       -5.3908136104
 H        -7.5109421332       -3.5549756175       -6.6131221669
 H        -8.7550222301       -6.1143179475       -7.0985429039
 H        -8.7619408692       -6.1502131491       -5.3355307619
 H        -6.6990177955       -4.3606128040       -4.0249918460
 H        -4.9870456995       -4.4703169101       -4.4455967392
 H        -4.2361775454       -3.9314144238       -2.5955626476
 H        -5.0854000441       -5.2944124741       -1.7056472426
 H        -6.4196172369        0.1239151079       -0.0563690074
 H        -6.5982910806       -0.4458688935       -1.7642856549
 H        -5.5692763057        1.7000544364       -1.8019046842
 H        -4.2662920786        0.5263594164       -2.2567597033
 H        -0.5494777812        3.8349646725       -1.6327415386
 H        -0.2861065499        2.6425762579       -2.8578420893
 H         0.0250389505        2.1994423638       -1.2119348093
 H        -1.6275714754        3.5834015595        0.3366849892
 H        -2.9763624593        3.0839481986        1.4024861060
 H        -3.1013611514        4.1066133740       -0.2317959932
 H        -2.3708619927        0.8110499752        1.4452319119
 H        -0.9917623415        1.2539380982        0.4401352309
 H        -1.9064587767       -0.0571872373       -0.0220853916
 H        -7.8075315342       -3.3854873270        0.6131288396
 H        -7.9207181596       -1.9535125759       -0.2642667250
 H        -7.0073167722       -1.9616778149        1.2772047196
 H        -5.3625987272       -4.7191183855        0.5252032168
 H        -4.7501515004       -3.2471332889        1.4227244351
 H        -4.0609595477       -3.8548621813       -0.2305668790
 H        -7.8994324497       -7.9184309997       -4.2017498491
 H        -6.7294497916       -9.1178133926       -4.7633107967
 H        -7.8326994502       -8.4929351800       -5.8737980511
 H        -5.0914776140       -7.9735929416       -6.7931921866
 H        -4.4788027656       -8.2317371275       -5.0901438017
 H        -4.1580563470       -6.7846545945       -5.8503381012
 H       -11.6514913620       -2.4443310663       -7.0870265936
 H       -11.3601300278       -0.8295453000       -7.5447847453
 H       -10.6976441326       -1.2674424546       -6.1012225683
 H        -8.9652407428       -2.2473506555       -9.9676095435
 H       -10.1202108616       -1.0923328639       -9.5566465114
 H       -10.5772647921       -2.8512441202       -9.6553747771
 H        -2.8723994599        1.2423209001       -7.9052260939
 H        -2.3139607729        0.8785555067       -6.3023616683
 H        -3.9607986979        1.0673762110       -6.3621097082
 H        -1.0211130218       -1.1072327935       -8.0002291879
 H        -2.0848644840       -0.9360050103       -9.2606703951
 H        -1.9185485496       -2.4013280812       -8.3272561534
 H         0.8614668915       -3.6001603121       -0.7921628851
 H        -0.7763878167       -3.4350990825       -1.7062987218
 H         0.1324870801       -2.0031117687       -0.7897593267
 H         2.6633724901       -1.4979647670       -3.2912264171
 H         3.1105457979       -2.8343020208       -2.0577320384
 H         2.4091716722       -1.2931049377       -1.6389632350
 H        -0.5319326092       -7.0145916466       -4.9065379321
 H         0.7448579475       -8.1125239107       -5.2632570478
 H        -0.7253469921       -8.2298414244       -6.1120779318
 H         1.2641046319       -6.6506077960       -8.8271433816
 H         1.2148192173       -8.1489104465       -7.7503695717
 H         2.4163973867       -7.0051273499       -7.3854708427
 H        -5.2583929272       -6.0937996924      -11.7150366706
 H        -4.8663805360       -5.2888401358      -13.2362268571
 H        -4.9509204062       -4.4363992584      -11.7705282378
 H        -3.5738112458       -7.6992131521      -12.0584711391
 H        -1.8098361181       -7.2375655138      -12.1826849185
 H        -2.9260111327       -7.1747407736      -13.5338971021
 H         1.5317618665       -2.4524577976      -15.8228788974
 H         1.2929634240       -1.4239389811      -17.3855338944
 H         1.2223061973       -3.1039957193      -17.2658191119
 H        -1.1828443718       -1.3765323311      -14.4660913510
 H        -1.2031431303        0.1092058768      -15.5891092887
 H         0.2820041495       -0.5324935068      -14.8953813351
 H        -4.7758059509       -2.9009740531      -18.5532031522
 H        -6.1154384308       -1.8859848700      -18.6624267648
 H        -4.6811820626       -1.3720232535      -17.7368910001
 H        -6.1284604000       -1.2173780038      -21.2661698921
 H        -4.7727160141       -2.1652522952      -21.6982096585
 H        -4.8548378769       -0.2956122495      -21.8224810269
 H        -6.4182645503        5.4019743154      -18.0959030438
 H        -7.7241083747        5.5292388626      -19.5567944051
 H        -6.4772450047        6.8144057657      -19.1858772182
 H        -5.6336156091        5.0398616008      -22.4391250035
 H        -5.3412464668        6.6804279200      -21.7936137740
 H        -6.9078558058        6.1659451056      -21.9725459102
 H        -0.1339920391        4.5457623972      -16.8980546541
 H         0.3156395891        3.0332305598      -17.4150085417
 H        -1.2561939342        3.5554986488      -17.7618951385
 H         0.7003945279        6.6236103108      -19.7663329129
 H         1.8604079962        5.8183909212      -18.6203476161
 H         0.4479139259        6.6288502043      -18.2100383545
 Na       -1.5566111853        1.5594872018      -19.7334799500
 Na       -3.8054217220       -4.5658582718       -7.1860858755
