232

 C       -13.3896650813      -14.7814902348       -1.8400232859
 C       -14.6370334976      -14.6828924609       -2.7486893023
 O       -15.1078579924      -13.6132408940       -3.0152193569
 C       -15.3747364178      -15.9788369590       -3.1456907836
 C       -15.5075448757      -15.9277223193       -4.7714598966
 O       -16.5126795724      -15.4169193683       -5.2730962513
 C       -14.4976087540      -16.6272057759       -5.6246461180
 C       -14.6423982541      -16.1398863514       -7.0649060027
 C       -14.6334576969      -14.6465756513       -7.0257615689
 O       -14.2520864916      -14.1481024474       -6.0280611162
 C       -14.9722473096      -13.7869388504       -8.3092027656
 C       -15.5368566284      -12.3947567622       -7.7635733639
 O       -16.6313280727      -12.3735234839       -7.1985145186
 C       -14.7211996825      -11.1188892212       -7.7960803254
 C       -15.4425462875       -9.8296613491       -7.2691381381
 C       -15.0405660442       -9.6045793641       -5.8469434920
 O       -15.1464553817      -10.5004621880       -5.0315246387
 C       -14.5395212457       -8.1297977658       -5.3940245239
 C       -13.2673098384       -7.7109276026       -6.2128064986
 O       -12.9364603606       -8.2618095176       -7.2362679655
 C       -12.4811669656       -6.5373814284       -5.7418036234
 C       -12.4064757957       -5.3866247248       -6.7277673214
 C       -12.9531147569       -4.0614173078       -6.1264020217
 O       -13.6467802527       -4.1429963295       -5.1496356816
 C       -12.6705250941       -2.7261623670       -6.8271039850
 C       -11.1470709068       -2.3354289186       -6.6089898267
 O       -10.6944342779       -2.8376153355       -5.6362170675
 C       -10.4168070561       -1.6660429836       -7.7884685098
 C        -9.3524687832       -0.6888412473       -7.2589862033
 C        -9.9465234189        0.5849223590       -6.6572849588
 O       -10.9587390608        1.0907760013       -7.1619060597
 C        -9.3659272922        1.1032617348       -5.2538752999
 C        -7.7403735465        1.0638574700       -5.2627527597
 O        -7.1795850018        0.0742832456       -4.8638135504
 C        -7.0818008532        2.2818904660       -5.9694664240
 C        -7.3747992083        2.7086897733       -7.4437576511
 C        -6.2649924535        3.7078440313       -7.7460013771
 O        -5.6337768221        4.2203406737       -6.8509421580
 C        -5.7340376408        4.1114354066       -9.1785699335
 C        -4.8667491154        2.8821425399       -9.5884607886
 O        -5.3863713375        1.7708528267       -9.4913276028
 C        -3.4512945247        3.0341544081      -10.1819513321
 C        -2.5254712815        1.7922165207       -9.7573329473
 C        -1.0513069031        2.0600120029      -10.1784346876
 O        -0.6951436694        2.6263497850      -11.2448972980
 C         0.0947420502        1.5141079155       -9.1283311205
 C         1.3997907365        2.2271950744       -9.6752537572
 O         2.2487825301        1.4889866071      -10.0455836142
 C         1.5806196205        3.8004310563       -9.5822447344
 C         2.4913232728        4.2438922237      -10.6766134530
 C         2.4569972181        5.7130212059      -11.2373342642
 O         1.8456896982        6.5726441571      -10.7637007168
 C         3.5598427134        5.9817947451      -12.4322211040
 C         3.5917283302        4.9843277620      -13.6362695814
 O         4.6141152980        4.7020575170      -14.2616879500
 C         2.3171326123        4.4047824119      -14.3035126175
 C         2.0838962966        4.8218712052      -15.8107498589
 C         3.1557657393        4.2889543413      -16.7780546096
 O         3.5218231410        3.0928745988      -16.7027077307
 C         3.6622775144        5.1824561094      -17.9786765068
 C         5.2821427258        5.0384806211      -17.9514533773
 O         5.9375324315        4.6059661042      -18.9026797265
 C         6.1017847794        5.6100836343      -16.7123853369
 C         7.6459574359        5.4851836367      -16.9972346352
 C         8.0251544738        4.0280032905      -17.2044351313
 O         7.2752944000        3.1190961154      -16.8658092835
 C         9.5314352896        3.6442515225      -17.8796647041
 C        10.5407359279        3.8213011029      -16.6190882264
 O        10.3157173584        4.7548064138      -15.8293815176
 C        11.7129253014        2.8573991304      -16.5297687358
 C        12.3153164159        2.8924450845      -15.1059820993
 C        11.6457527560        1.8633006145      -14.1487016360
 O        11.0325787411        0.9707933809      -14.6630388032
 C        11.9010893091        2.0096408407      -12.6429736130
 C        10.6380743151        1.4836108078      -11.7373677727
 O        10.7169144250        0.8091948954      -10.7560166352
 C         9.3163107166        2.2196150899      -12.1590128210
 C         8.1020150169        1.4064156588      -11.6686790433
 C         6.9965948373        1.2907098036      -12.7200616105
 O         6.7951270389        2.3861095475      -13.3617578501
 C         6.0459805975        0.1564263851      -13.0341238907
 C         6.4180519999       -0.1804521685      -14.5619471658
 O         5.7251294466        0.1438886649      -15.4869560960
 C         7.7876180369       -0.7063223195      -14.7505878312
 C         6.1508522517       -1.0587480351      -12.2090327381
 C         4.5534041260        0.6396569796      -13.0915250104
 C        13.2200186234        1.1591399747      -12.2587687123
 C        12.0688895962        3.4635585300      -12.2206797098
 C         9.6369863928        2.3242028431      -18.5605249976
 C        10.0900323072        4.7095141373      -18.9000653459
 C         3.1064393425        4.5380611035      -19.2618848564
 C         3.2196988473        6.6585402367      -17.9865793852
 C         3.1641237990        7.3831292506      -13.0208911218
 C         4.9055714452        6.0730562381      -11.7834706285
 C        -0.2164517800        1.9459888718       -7.7114879889
 C         0.2582508050        0.0149043869       -9.2370617289
 C        -7.0870341355        4.2627460420      -10.0258931981
 C        -4.9893219795        5.4703026149       -9.1075644276
 C        -9.9519254655        2.5362285010       -4.9126939531
 C        -9.9745063229        0.1742684616       -4.2046001867
 C       -13.0798710219       -2.9508520349       -8.3752837256
 C       -13.5522175184       -1.6769050029       -6.1936559638
 C       -15.7296830795       -7.1406106073       -5.6219335379
 C       -14.2081216019       -8.2287916689       -3.8930899740
 C       -13.6267740135      -13.5410015204       -9.1259530633
 C       -16.0100664497      -14.4985760903       -9.1725142435
 C       -14.6849137170      -17.2636429643       -2.7064760710
 C       -16.8368358659      -15.7966633522       -2.5982567389
 H       -12.4619581697      -14.7852525549       -2.5035021548
 H       -13.2343091761      -15.6042503978       -1.1655606779
 H       -13.3030542792      -13.9109856982       -1.2404372306
 H       -14.5191916889      -17.7263428858       -5.4468196269
 H       -13.4940716644      -16.2597074233       -5.2913962104
 H       -15.4829109640      -16.6651269896       -7.4506391892
 H       -13.7922202138      -16.4657089464       -7.6662781685
 H       -14.2141805161      -10.9255272212       -8.8306693428
 H       -13.8118314945      -11.2783130533       -7.1943911180
 H       -16.4763801747       -9.8630776356       -7.3711696876
 H       -15.1941166024       -8.9502849187       -7.8808607556
 H       -11.4189407077       -6.7486600990       -5.5701376281
 H       -12.7191395263       -6.1746171617       -4.7594018258
 H       -13.0150757036       -5.6466198025       -7.5544527849
 H       -11.4062838431       -5.1757784336       -7.1819379007
 H       -11.1369547286       -1.3132289344       -8.5330034345
 H        -9.8490202264       -2.3588420068       -8.4320367537
 H        -8.8671427722       -0.2125637252       -8.0756557564
 H        -8.6193803045       -1.2304818348       -6.5939319138
 H        -6.0674121777        2.1113195227       -5.8886556433
 H        -7.2004483730        3.2804896637       -5.4422207919
 H        -8.3640935948        3.2168308264       -7.3993923009
 H        -7.3453178715        1.8208829350       -8.1319975223
 H        -2.9254706591        4.0521747739       -9.8561295403
 H        -3.4530250497        3.1028119226      -11.2838773718
 H        -2.9605738125        0.8741073408      -10.1746054245
 H        -2.4599537535        1.5862893670       -8.6376659649
 H         1.8553917470        3.8936720027       -8.5070866467
 H         0.5454423057        4.1307370062       -9.5558689220
 H         2.2620873442        3.5099979096      -11.5342974788
 H         3.5465943686        3.9974718390      -10.5361323673
 H         1.4108124702        4.7011985400      -13.7597616120
 H         2.5681871879        3.3784844522      -14.2624620252
 H         1.9949813868        5.9041857605      -15.9208525602
 H         1.1204678816        4.5579026359      -16.1035318049
 H         5.6319627652        5.1091828589      -15.8200191930
 H         5.7441347649        6.6629142127      -16.6399212014
 H         8.1107783100        5.9195073330      -16.1695790543
 H         7.9954201979        6.2080131582      -17.7445646033
 H        12.5759481267        3.1041151622      -17.1261430618
 H        11.4526690150        1.8234235605      -16.7178469683
 H        12.1260918730        3.8225724125      -14.6974515250
 H        13.3721192692        2.6422750362      -15.2031735641
 H         9.2822102569        2.3017053378      -13.2782157071
 H         9.3466650977        3.3144961657      -11.9085008434
 H         7.5897714991        1.8561938228      -10.7570554714
 H         8.4951363349        0.4920114376      -11.2649955344
 H         8.1095287987       -1.4654132676      -14.0809563880
 H         8.5246276781        0.0834968268      -14.7924756234
 H         7.7400616516       -1.1684029790      -15.6567656160
 H         5.3313050340       -1.7369018557      -12.4580659627
 H         6.1005636351       -0.6846651812      -11.2065083583
 H         7.0746076140       -1.5798982258      -12.3081615013
 H         4.2592445061        0.6206277301      -12.0872934124
 H         4.0232962272       -0.1226936240      -13.7341417702
 H         4.4556287000        1.5348502451      -13.5320304556
 H        14.0626745529        1.4616261386      -12.8335276536
 H        13.0254830720        0.1086403120      -12.5645828866
 H        13.3249757307        1.2101276157      -11.1779050329
 H        12.9413528695        3.9436521643      -12.6679559720
 H        12.2218322962        3.5529919609      -11.1541359455
 H        11.1421569665        3.9731482120      -12.4868614230
 H         9.8903808674        1.5171770248      -17.8869688091
 H        10.5927805017        2.3592802482      -19.1975841747
 H         8.6602992035        2.0115249327      -18.9837842467
 H        10.3872750607        5.7304387908      -18.5010713950
 H         9.2833217167        5.0138875100      -19.6375483303
 H        10.9116039505        4.3876736039      -19.4314349093
 H         2.4771618492        5.2714412233      -19.6985380540
 H         2.7145533507        3.5154781962      -19.0698786513
 H         3.8771019534        4.3493315017      -19.9781903799
 H         3.6420391581        7.1832936520      -18.7933872610
 H         3.4524128397        7.2127866994      -17.0621818824
 H         2.1198629476        6.5993082686      -17.9938549283
 H         3.0755685374        8.0394497312      -12.2187856671
 H         2.2769973159        7.3725483153      -13.6307203256
 H         3.9964626262        7.7995362525      -13.6500896066
 H         5.6980771227        6.3279715630      -12.3431926394
 H         5.2501530997        5.2923320542      -11.1687205402
 H         4.9300780663        6.8180292055      -10.9916542055
 H        -0.5919282538        2.9093964367       -7.5830788974
 H         0.7077437072        1.9133361245       -7.0628360658
 H        -0.8046013043        1.2096271041       -7.2630523501
 H        -0.5172218999       -0.5218216004       -8.7555560089
 H         1.2397750448       -0.3087234696       -8.8682590061
 H         0.3219613769       -0.3311028813      -10.2490147314
 H        -7.5242326856        3.3280565368      -10.1871082625
 H        -6.6361726621        4.6325402704      -11.0007943752
 H        -7.7676791284        4.9797970710       -9.6211116291
 H        -3.8832002012        5.4004213715       -9.2428572308
 H        -5.0802950442        5.8667220858       -8.1291898366
 H        -5.3579079068        6.2210876072       -9.7884415303
 H       -10.9983723422        2.4123631721       -4.7519392327
 H        -9.8465429135        3.1717006551       -5.8056581101
 H        -9.5985240029        3.0303331888       -3.9814774999
 H        -9.7510707882        0.3630290583       -3.1437062047
 H        -9.8800002989       -0.8826306974       -4.4792233962
 H       -11.0816420655        0.2274129108       -4.0514495412
 H       -13.2359785155       -1.9762241208       -8.8862639715
 H       -13.9506825672       -3.4932768962       -8.5579217815
 H       -12.2923201375       -3.4135053209       -8.9595405464
 H       -14.4128030583       -2.1326543324       -5.6905887772
 H       -13.9722179157       -1.0528627636       -6.9736294113
 H       -12.9607619877       -1.0875413008       -5.5001475112
 H       -16.2653739283       -7.1362413141       -6.6022048278
 H       -15.5240718035       -6.0751516939       -5.3510300614
 H       -16.4621311212       -7.3368204716       -4.8812689145
 H       -13.2788439173       -8.7878346286       -3.8268551236
 H       -14.9268888991       -8.8948978713       -3.3875874370
 H       -14.1626848879       -7.1984033611       -3.4796371138
 H       -12.9365208011      -13.1615032062       -8.4056721127
 H       -13.8808507903      -12.7935963742       -9.8964007560
 H       -13.4010392662      -14.5178917926       -9.4918648591
 H       -16.5722678829      -15.2391689427       -8.7166761322
 H       -15.5577616767      -14.8823724155      -10.0448386104
 H       -16.7844730017      -13.8542978550       -9.3744579565
 H       -13.6452426032      -17.3981950628       -3.1762449417
 H       -15.3076993211      -18.1858976194       -3.0243540932
 H       -14.6008403421      -17.2829338434       -1.6596833686
 H       -16.9144921169      -14.6863975026       -2.5181147517
 H       -16.8527346274      -16.1035669766       -1.5733263406
 H       -17.6223556834      -16.1797066021       -3.1743901692
 Na      -15.9816376649      -12.6717511363       -4.9427760331
 Na        5.4766241543        2.7649418905      -15.3965600655
