232

 C       -18.8239148136       -5.1861040292       -5.3052861677
 C       -19.1844179624       -6.1363927808       -4.1810716282
 O       -18.3901266570       -7.0047166150       -3.9003490504
 C       -20.4053262083       -5.8503048311       -3.2239200144
 C       -20.0008187188       -5.8570839982       -1.7382184114
 O       -19.6162734413       -6.8270881004       -1.1074425932
 C       -20.0605022415       -4.5666599722       -0.8945044667
 C       -18.8974300923       -4.6233120329        0.1142705130
 C       -17.5426418248       -4.1047912674       -0.5112446199
 O       -17.5884959135       -3.2933964064       -1.4245886312
 C       -16.1587630592       -4.5902024392        0.0277186364
 C       -16.1148470495       -6.0097471912       -0.6187233902
 O       -17.0499607598       -6.7881862362       -0.4019336919
 C       -14.9300908941       -6.3579587382       -1.4916756127
 C       -14.3128267742       -7.7282696386       -1.3103452113
 C       -14.8782685466       -8.9096048711       -2.1458515315
 O       -16.0497621391       -9.0667920139       -2.3840749293
 C       -13.8512886188      -10.0186134988       -2.6150132784
 C       -12.8202865504       -9.2594926482       -3.6393520023
 O       -13.0346313158       -8.0977631764       -4.0094122483
 C       -11.5811268088      -10.0830370628       -4.0975424043
 C       -10.6711997525       -9.2771516690       -4.9970132379
 C        -9.2929232694       -9.9040700904       -5.2907221275
 O        -8.8127473447      -10.9547240986       -4.8761260605
 C        -8.5135998445       -8.9520126003       -6.2922865646
 C        -8.2840595693       -7.4321059877       -5.7611082109
 O        -8.9784667974       -6.9419002383       -4.8637416113
 C        -7.1621024257       -6.5860946605       -6.3221597035
 C        -7.6533459297       -5.1966224977       -6.7174891440
 C        -8.5302668091       -5.3124381014       -8.0094467218
 O        -8.9867908536       -6.3492453705       -8.4459858577
 C        -8.6229777939       -3.9918348950       -8.7590011666
 C        -7.2553710044       -3.6374833691       -9.4311223941
 O        -6.2383069498       -3.5512389945       -8.8200738083
 C        -7.0875460269       -3.3588961976      -10.9631004542
 C        -5.5960236226       -3.3028973706      -11.4130344303
 C        -5.4709319466       -2.6041530441      -12.7916909711
 O        -6.3716077019       -1.8831440395      -13.1437112088
 C        -4.3297119772       -2.7344975125      -13.8655363940
 C        -2.8652413682       -2.7961782288      -13.0661080585
 O        -2.9876925185       -3.0524980670      -11.9032693929
 C        -1.5553264884       -2.5936278833      -13.7558879122
 C        -0.3388627595       -3.1057405168      -12.9170133656
 C         0.7985574384       -2.2225628876      -13.1467363671
 O         0.7618911330       -1.2317979959      -13.8728399906
 C         2.1250355430       -2.5290191262      -12.1561459461
 C         2.7908666950       -1.1432381925      -11.7851579798
 O         4.0151177943       -1.0473545857      -11.6458720991
 C         1.8527298866        0.1813549420      -11.6120714290
 C         2.4006638937        1.2220736368      -10.5939070739
 C         2.5589186944        2.6371970450      -11.1363411835
 O         1.8999495764        3.0525217075      -12.0372921631
 C         3.6152390297        3.6960535003      -10.3963093206
 C         4.3466259594        4.4168654466      -11.4957914481
 O         5.4285608922        4.0730799132      -11.8712387620
 C         3.4351685592        5.4199073839      -12.3608963223
 C         4.0941649353        6.7603648198      -12.2541828880
 C         5.3470680082        6.8539325205      -13.1055225819
 O         5.3946179158        6.3180063336      -14.2502292996
 C         6.5502369512        7.8018227967      -12.6587562214
 C         7.6855654258        7.7932927118      -13.7344237965
 O         7.9342354374        8.7290933858      -14.4142375798
 C         8.5358070542        6.5256374601      -13.7907453452
 C         9.2065908445        6.2088725961      -15.1249995460
 C         8.3372664707        5.8115916294      -16.2900595743
 O         7.4935611253        4.9892540455      -16.1812176661
 C         8.9575174497        6.2312829846      -17.6809437021
 C         9.7796718469        4.9195543094      -18.1336183717
 O        10.5122102592        4.2962878694      -17.3822545320
 C         9.9001131004        4.6023494588      -19.6454138272
 C         9.5796407011        3.0701118716      -19.8721110119
 C         8.3438680183        2.5332522017      -19.1560639129
 O         7.8675117716        2.9859403036      -18.1804253069
 C         7.6748257327        1.3139598240      -19.9007009429
 C         7.6584813874        0.0446518167      -18.8550004561
 O         8.1989530271       -0.9913032318      -19.1065410306
 C         6.8823671126        0.2945625079      -17.4952314389
 C         7.9510014569        0.6152107999      -16.4238576772
 C         7.3239567700        1.2700387317      -15.0690185744
 O         7.7524941896        2.3159407698      -14.6490270967
 C         6.0240279651        0.6478225854      -14.3892081996
 C         4.7583928251        1.3263662234      -15.1214292371
 O         4.6244455886        2.5090061950      -15.3900398441
 C         3.4972589098        0.4725542671      -15.3061636543
 C         6.0727590421       -0.8857150152      -14.4878762868
 C         5.9864808524        1.0666826279      -12.8108315796
 C         6.2451432967        1.7277593810      -20.2838233657
 C         8.3971935287        0.8301157922      -21.2165245653
 C         7.7424781189        6.6014766227      -18.6101190477
 C        10.0162312722        7.3546649467      -17.7018829849
 C         5.9173443688        9.2365709848      -12.7192656886
 C         7.0837133381        7.3561454722      -11.2521609093
 C         2.8218218657        4.6928839877       -9.4112201546
 C         4.7231807942        2.9626505577       -9.4719774502
 C         1.8130610714       -3.0255283451      -10.7237257996
 C         3.0668219957       -3.4387711886      -12.9649392405
 C        -4.4026767803       -3.9668573376      -14.7102812839
 C        -4.3276322959       -1.3245962911      -14.6488502926
 C        -9.7623777300       -4.0238059171       -9.8445276265
 C        -8.9222910086       -2.7457019704       -7.8824456211
 C        -7.0435775618       -9.6307601047       -6.4381831640
 C        -9.1401501247       -9.0483039722       -7.6679771785
 C       -13.2941174232      -10.7589690739       -1.3461752202
 C       -14.5429314338      -11.1039758923       -3.5472702724
 C       -15.0637523699       -3.6187527160       -0.4276877106
 C       -16.1506701099       -4.6571496669        1.5824039948
 C       -21.1350792704       -4.5577129270       -3.5279080925
 C       -21.3466747861       -7.1662194825       -3.5496344343
 H       -18.6146072480       -4.2340574828       -4.8218817549
 H       -19.6937286980       -5.1774307649       -5.9052816295
 H       -17.9728510190       -5.5025674501       -5.9571289355
 H       -20.9990444116       -4.5087069217       -0.3579667703
 H       -20.0520746326       -3.6865601488       -1.5588062923
 H       -18.9110480219       -5.6467995115        0.5809433024
 H       -19.1705474194       -3.9617607020        0.9809637449
 H       -14.1858935729       -5.6007023189       -1.2932701606
 H       -15.3183094241       -6.2003603636       -2.4991935775
 H       -14.5250361097       -7.9935267522       -0.2393015456
 H       -13.1650655381       -7.6686267858       -1.4762354300
 H       -11.9961239702      -11.0340072523       -4.5028625925
 H       -10.9602166039      -10.4532338354       -3.2369560961
 H       -10.5037323336       -8.2447483062       -4.5909711788
 H       -11.0982284335       -9.1042615446       -6.0074137396
 H        -6.7063618645       -7.0672512910       -7.1929420945
 H        -6.3061230691       -6.6962996258       -5.6532907692
 H        -6.8621990978       -4.5840261546       -7.0249863968
 H        -8.2717741743       -4.7554653147       -5.9042367927
 H        -7.5188330389       -2.3678598505      -11.2416895429
 H        -7.6899366022       -4.1070247943      -11.5466831606
 H        -5.1328572867       -4.2122443379      -11.4966321498
 H        -4.9041864722       -2.7181768851      -10.7459955222
 H        -1.5092031178       -1.5165925284      -13.9578757203
 H        -1.3806375986       -3.1655149397      -14.6573243874
 H        -0.1434839701       -4.0964922205      -13.1745404696
 H        -0.7332735600       -3.2001876332      -11.9056671257
 H         0.8761726749       -0.2690905982      -11.2859222228
 H         1.4881197434        0.8362634549      -12.4385283522
 H         3.2320264770        0.9161060473      -10.0297769194
 H         1.5972197424        1.3362963449       -9.7869916094
 H         2.5281703034        5.5729772841      -11.8458043573
 H         3.3506836470        5.1018508263      -13.4287064430
 H         4.1954729751        7.1280070616      -11.2556244436
 H         3.6305255926        7.6467537828      -12.7179275789
 H         7.8572950224        5.6547267866      -13.5388716683
 H         9.1742163271        6.4350960961      -12.8726568461
 H        10.0568561729        5.4632436775      -15.1506584565
 H         9.6538674637        7.1259575339      -15.3957832482
 H        10.9232454270        4.7955813119      -19.9508446037
 H         9.3002627851        5.1923338161      -20.3402771540
 H        10.4413975567        2.5546676631      -19.5692328753
 H         9.5067324442        2.8958840441      -20.9410838338
 H         6.4738401487       -0.7346212540      -17.2760430512
 H         6.0848588555        1.1278648904      -17.4946360437
 H         8.8588496161        1.0556269107      -16.8631242090
 H         8.3498607877       -0.3551470861      -16.0895897044
 H         3.7378121919       -0.5909571214      -15.4041540270
 H         2.8124961589        0.7483116838      -16.1847980751
 H         2.8683787263        0.6178904300      -14.4860836192
 H         5.3439241142       -1.5049989298      -14.0273531917
 H         7.0526515110       -1.1207066046      -14.1071406854
 H         6.1034292079       -1.1237721711      -15.5244287212
 H         5.1066269578        0.5689345464      -12.2367940050
 H         5.6771204998        2.1052630241      -12.6155362266
 H         6.7725576465        0.7029657137      -12.1793033898
 H         5.6445511235        0.8234587787      -20.4655419520
 H         6.2853388850        2.5206507106      -21.0760940907
 H         5.8350393478        2.1470414503      -19.3162122069
 H         8.0147537598       -0.1429605050      -21.5543446770
 H         9.4417428610        0.4967692685      -21.1197123790
 H         8.3953060099        1.5956961526      -22.0368870302
 H         7.3042385232        7.5822508648      -18.3473527455
 H         6.9054062917        5.9013493676      -18.5158820185
 H         8.1050480325        6.6798995073      -19.6599793810
 H        10.7855687199        7.2231957312      -17.0353623543
 H         9.6851465926        8.3493914743      -17.2700522107
 H        10.3829741406        7.5387971540      -18.7032076268
 H         6.4863206321       10.0279505755      -12.3190823530
 H         4.9672989255        9.1500742409      -12.2608836119
 H         5.8038439729        9.6756674625      -13.7375313687
 H         7.5812396102        8.1653611436      -10.8087579652
 H         7.7013765793        6.4481640471      -11.3343791614
 H         6.2541305110        7.1453202853      -10.6252995492
 H         1.8031693814        4.4199756591       -9.0655547875
 H         2.7016870593        5.6671887859       -9.8599874415
 H         3.2190198430        4.8998678140       -8.4545774195
 H         5.4539138395        3.5281861414       -8.8784006072
 H         5.2394525229        2.3047000867      -10.1636802922
 H         4.1426248786        2.4102836050       -8.7545519576
 H         1.1398112236       -2.3024858990      -10.1523549562
 H         2.7101547537       -3.2410341834      -10.0988465284
 H         1.2405080919       -3.9799104749      -10.8889471140
 H         2.9220560280       -4.4960948257      -12.6770991931
 H         4.1065832730       -3.1446294342      -12.7114079677
 H         2.8087857140       -3.3820768667      -14.0073964722
 H        -4.2512514404       -3.7128020172      -15.7360294110
 H        -5.4452695406       -4.3558429371      -14.6861730567
 H        -3.6619014670       -4.7117693287      -14.4543490872
 H        -3.4729391778       -0.9710096715      -15.1916951867
 H        -4.7696802846       -0.5580303226      -14.1141607975
 H        -5.0758822468       -1.3915069129      -15.4171631876
 H       -10.3485562367       -4.9648988118       -9.6186297044
 H        -9.5618986556       -4.1348015983      -10.9197635782
 H       -10.5067202651       -3.2607085056       -9.7304631847
 H        -9.9512937152       -2.3909043807       -7.6761560086
 H        -8.5662419902       -1.8471588666       -8.3697665661
 H        -8.3716039569       -2.8041192220       -6.9155814353
 H        -7.1786516763      -10.5358565465       -7.0063519426
 H        -6.4922921288       -9.7962511994       -5.5322698390
 H        -6.4187300134       -8.9586803953       -7.0666606296
 H        -9.3754516119      -10.1453382486       -7.7778578072
 H        -8.3494527966       -8.9930711795       -8.4154185333
 H        -9.8165527815       -8.2683913564       -7.8887863114
 H       -12.8540491204       -9.9708673075       -0.6816962213
 H       -12.5002875511      -11.4407922146       -1.3949254461
 H       -14.0403271827      -11.3705982067       -0.7668612108
 H       -15.5392135497      -10.7596834343       -3.9374365688
 H       -14.7464360690      -11.9874175256       -3.0012513056
 H       -13.8926652561      -11.3470072253       -4.3470216240
 H       -14.8059849040       -3.6296423713       -1.4986042944
 H       -14.1309123694       -3.6282981883        0.0540056511
 H       -15.3374905872       -2.5936222686       -0.3735570605
 H       -16.9723781042       -5.2170933004        2.0330555821
 H       -16.2064539850       -3.5472969329        1.9020317690
 H       -15.3064907350       -5.1723359725        2.0026669286
 H       -20.5262796022       -3.6556209675       -3.8342658363
 H       -21.7007388959       -4.0393337819       -2.6816769222
 H       -21.7302007483       -4.6672294409       -4.3534707789
 H       -22.2211428359       -7.1388371342       -2.9212358164
 H       -20.8772344827       -8.1743641989       -3.4760447792
 H       -21.6436017274       -7.0926499563       -4.6041904704
 Na      -18.1350324228       -8.2024680368       -2.0678782207
 Na        6.2591145148        4.0692009265      -14.4720069408
