232

 C         2.3310104600        3.9913214792      -20.3902798350
 C         1.0401429020        3.5033750650      -19.7394003222
 O         0.7062478723        2.3602985056      -19.7097290397
 C         0.1049979288        4.5571238713      -19.0410654826
 C        -1.1409353206        4.7596613118      -20.0095642445
 O        -1.7009290219        3.8819318777      -20.5623372469
 C        -1.8856640787        6.1533067310      -20.1050249203
 C        -3.3447916718        6.2403764160      -20.5527049661
 C        -4.3030634349        5.2497894788      -19.7641187576
 O        -3.9629192323        4.8578652017      -18.6942845955
 C        -5.8241462258        4.9754316791      -20.2406590149
 C        -6.0607151439        3.4507665928      -20.4508747412
 O        -6.4632557259        3.0807128238      -21.5927073799
 C        -6.2176875950        2.5907404559      -19.1874792609
 C        -6.2231247591        1.0348939474      -19.3721967207
 C        -4.7731727505        0.5653120607      -19.4084552991
 O        -3.8500613258        1.3891461633      -19.0915987144
 C        -4.4178844553       -0.9475342789      -19.7785499956
 C        -2.9050522344       -1.1148439627      -20.1885731633
 O        -2.3576077197       -0.3475588299      -20.9285305905
 C        -2.1108645429       -2.2690899115      -19.6188410916
 C        -0.6731282846       -1.8698634260      -19.1435309829
 C        -0.7440890056       -1.0056269348      -17.8233136383
 O        -0.9374808394        0.1738988776      -17.8981438031
 C        -0.4912100621       -1.7192573332      -16.4335823083
 C        -1.6577290132       -2.9152452321      -16.2126556288
 O        -2.5397323805       -3.1349532386      -16.9940629886
 C        -1.2058296704       -3.8391661210      -15.0328834875
 C        -2.4481455244       -4.6542330816      -14.3902327404
 C        -2.4251080009       -4.4613308178      -12.8559338072
 O        -1.9136343824       -3.5184727044      -12.2363293032
 C        -3.0473494892       -5.6198251391      -11.9428870565
 C        -2.7601132498       -5.2921026640      -10.4839862938
 O        -3.6653004308       -4.8907750663       -9.7732511029
 C        -1.3322991945       -5.5848547916      -10.0755897403
 C        -0.8644627595       -4.8640432176       -8.8403995194
 C        -0.9099532620       -5.7884996313       -7.6528884969
 O        -1.9807273449       -6.1524966795       -7.2259062730
 C         0.3161679408       -6.2732063424       -6.8746608895
 C         1.2593365306       -5.0838305537       -6.4232311902
 O         1.0465849655       -3.8917129493       -6.7356292670
 C         2.3663458139       -5.4673154841       -5.4331702828
 C         2.5541899107       -4.3673112409       -4.2875765556
 C         1.2364982978       -4.0197977106       -3.6123948325
 O         0.2319924255       -4.6648060190       -3.8729919223
 C         1.0437112084       -2.7848361416       -2.6285826666
 C         0.0098360750       -1.7317669208       -3.3830495418
 O         0.4923021210       -0.6974758364       -3.7902109033
 C        -1.3942405314       -2.1712030966       -3.8342399212
 C        -1.9698373982       -1.2057499065       -4.9312613177
 C        -3.0089228578       -1.8311326521       -5.8993413267
 O        -3.4862306909       -2.9177997509       -5.6591687222
 C        -3.1897354028       -0.9590730941       -7.1986071530
 C        -4.4778893642       -1.4754635022       -7.8537393383
 O        -4.5170324860       -2.6024197812       -8.4322606500
 C        -5.7589521519       -0.6946710149       -7.5943645105
 C        -6.9741715671       -1.1885362433       -8.2842744486
 C        -8.1431323876       -1.3349873417       -7.3084217155
 O        -8.0295142769       -1.0037671826       -6.1001173074
 C        -9.3928244011       -2.1112842205       -7.7539451193
 C        -9.1396452843       -3.6609050167       -7.5348659305
 O        -9.6329463460       -4.4856085435       -8.2162455515
 C        -8.2558720044       -4.1170218780       -6.2930594113
 C        -8.1098546987       -5.5964790691       -6.2765276671
 C        -6.5729313540       -6.1140869099       -6.4372713365
 O        -5.9308343570       -5.7237008408       -7.3861608542
 C        -6.0009233501       -7.1303413719       -5.3974850685
 C        -5.7097740238       -6.3741848238       -3.9848484964
 O        -5.5822345098       -7.0005036884       -2.9538200666
 C        -5.7725046384       -4.8470252541       -3.9642777865
 C        -5.2279399289       -4.1909504164       -2.6120764222
 C        -6.2374677588       -3.4164598234       -1.7642436863
 O        -7.2921162581       -3.0882956261       -2.1900794723
 C        -5.8358209020       -2.8722390775       -0.2961142592
 C        -5.0887423707       -1.5056739476       -0.6633724936
 O        -3.9093196094       -1.5521146364       -1.0586101962
 C        -5.8423704267       -0.2193000349       -0.8625269545
 C        -4.9733295702        0.9172754451       -1.4770247110
 C        -4.1849401565        1.6800380491       -0.4303639234
 O        -4.8585463407        2.0084363020        0.5481834479
 C        -2.7089288826        2.0347036671       -0.3595531336
 C        -2.0791328879        2.1087839334       -1.7596230328
 O        -2.5646883566        1.7132226750       -2.8002151545
 C        -0.5707932799        2.6754643361       -1.8062745426
 C        -2.6653725580        3.4646975156        0.2874024161
 C        -1.9584863656        0.9544769114        0.4496815644
 C        -7.1440345385       -2.6505726555        0.4634824917
 C        -4.8517886782       -3.7355576608        0.5674211761
 C        -7.0248759667       -8.1521780133       -4.9506274958
 C        -4.7329395813       -7.8584652917       -6.0086081017
 C       -10.5789801353       -1.7479988739       -6.8126868748
 C        -9.7198695339       -1.8441559844       -9.2644642904
 C        -3.3744014882        0.6150483881       -7.0337679235
 C        -2.1072592829       -1.3161429626       -8.2020189252
 C         0.3039162183       -3.4075933868       -1.3855177440
 C         2.3748985703       -2.0959495766       -2.1896664786
 C        -0.0098153903       -7.1953013272       -5.7318979898
 C         1.1427083045       -7.0835429779       -8.0931211435
 C        -4.5534301944       -5.5064730230      -12.1901301484
 C        -2.5976545968       -7.0404962747      -12.1932848204
 C         0.8363116405       -2.5040457520      -16.3784352381
 C        -0.4808504521       -0.5862780224      -15.4348049027
 C        -4.8773612691       -2.0702202988      -18.7590363109
 C        -5.2711507770       -1.2614485487      -21.1378557506
 C        -6.9371092389        5.5047408856      -19.1522879414
 C        -6.1793116282        5.6952463103      -21.5573566511
 C        -0.4646203491        4.0151481158      -17.6800613217
 C         0.7734798626        5.9660386641      -18.8169329617
 H         2.6159764104        3.4791048853      -21.2645028882
 H         3.0183856449        3.9210331495      -19.6054067672
 H         2.2113225494        5.0610655685      -20.5843044080
 H        -1.2134547752        6.7699451433      -20.8227982466
 H        -1.9885426907        6.6305152500      -19.1471937670
 H        -3.6262336830        6.1715577548      -21.6334041867
 H        -3.6836054395        7.1748267944      -20.2715758596
 H        -7.2510188647        2.9011403718      -18.8275102655
 H        -5.6094006571        2.9469275223      -18.3620284751
 H        -6.7853381219        0.8398558147      -20.2685313547
 H        -6.8297799209        0.6054246328      -18.5602234741
 H        -2.0906973702       -3.0053441669      -20.4422299745
 H        -2.6086007894       -2.7568402439      -18.8616185499
 H        -0.2587548132       -1.3807968093      -19.9938566218
 H        -0.1257331819       -2.8587978673      -18.9639375503
 H        -0.6354211863       -3.2226812375      -14.3426263048
 H        -0.5036282982       -4.6068851091      -15.3165158317
 H        -2.3330878582       -5.7231292459      -14.5884189812
 H        -3.3748431051       -4.2326637067      -14.8744544821
 H        -0.7181126002       -5.2488803604      -10.9238547083
 H        -1.2683944293       -6.6640333492       -9.9023816473
 H        -1.5846410765       -3.9815900983       -8.7616615097
 H         0.0973161987       -4.2711121286       -8.9614952979
 H         3.3123187278       -5.6885375906       -5.9659549990
 H         2.1579572100       -6.3945655758       -4.9319868927
 H         2.8830054381       -3.4300305016       -4.7512425212
 H         3.3305194538       -4.7211985976       -3.5878147698
 H        -1.9208139345       -1.9463305359       -2.9091437145
 H        -1.3394886393       -3.1798986716       -4.0240650348
 H        -1.1809247413       -0.8066429409       -5.5780257919
 H        -2.3235087489       -0.2854636125       -4.3811430633
 H        -5.8229926388        0.3922309700       -7.7854000212
 H        -5.8727815632       -0.7739922194       -6.4084896676
 H        -6.7868927057       -2.1945440486       -8.6809069259
 H        -7.3859152519       -0.5064802767       -8.9295360644
 H        -8.7424792439       -3.8471314615       -5.3916530477
 H        -7.2754415539       -3.6865725077       -6.2875592550
 H        -8.5924097975       -6.1008657110       -7.1430331256
 H        -8.6860245864       -5.9382909421       -5.4285057788
 H        -6.7836669847       -4.4623616576       -4.0057014695
 H        -5.2830132521       -4.3131618910       -4.7756524287
 H        -4.4655793335       -3.3699812247       -2.7594606779
 H        -4.8947999028       -5.0071341524       -1.9287885917
 H        -6.2928599066        0.0544135526        0.0865722983
 H        -6.6667575986       -0.5190588528       -1.4930835481
 H        -5.6936079152        1.6084691608       -1.9805362522
 H        -4.2565600730        0.3879829630       -2.1616018715
 H        -0.5540694206        3.5326658954       -2.4548500262
 H         0.1360727386        1.9432667748       -2.2513245896
 H        -0.0591655014        3.0528152678       -0.8737036540
 H        -1.5898263240        3.7769210624        0.0079374293
 H        -2.9896507506        3.3312744365        1.2836929977
 H        -3.2554513155        4.1737349320       -0.3260032456
 H        -2.4348433003        0.8630016341        1.4319807745
 H        -0.8682362175        1.1565716046        0.5347889116
 H        -2.0029495120        0.0361202407       -0.1093719132
 H        -7.7759130691       -3.5174642794        0.4440282135
 H        -7.7523390721       -1.9070680635        0.0746814452
 H        -6.7807884991       -2.4509952686        1.5112523305
 H        -4.9219964769       -4.8166658340        0.3961143661
 H        -5.2278909250       -3.5361959470        1.5648431822
 H        -3.8030332499       -3.4612361955        0.4283448795
 H        -7.9181350355       -7.7846845793       -4.5078935601
 H        -6.5818517696       -8.8206614147       -4.2465876950
 H        -7.2311853219       -8.8043069529       -5.8579732517
 H        -4.9957621376       -8.3365400542       -6.9412780809
 H        -4.5258689047       -8.6652788737       -5.2461842657
 H        -3.8416103623       -7.2848716285       -6.1060584331
 H       -11.3899471733       -2.3961294561       -6.8713979425
 H       -11.0402592127       -0.7654121433       -7.0443031218
 H       -10.2593101953       -1.4049576183       -5.8407810172
 H        -9.2267774806       -2.5011210171       -9.9758420131
 H        -9.4852889251       -0.7955600731       -9.5430324525
 H       -10.8060591030       -2.1613882140       -9.3630768982
 H        -3.8201524011        1.0071387747       -7.9238807328
 H        -2.4786482910        1.2053612082       -7.0192970118
 H        -3.9090544522        0.9307287188       -6.2300269575
 H        -1.0395685663       -1.4485070255       -7.8527069259
 H        -1.8679605590       -0.6211019641       -8.9205870094
 H        -2.3029678593       -2.2369668379       -8.7367694729
 H         0.9505426890       -4.1931832901       -0.9784890330
 H        -0.6482509391       -3.7839445325       -1.7079513383
 H         0.2175115936       -2.6441694759       -0.6229358920
 H         2.9179637426       -1.7869381980       -3.1161639514
 H         2.8734325986       -2.7578270164       -1.5185241056
 H         2.3142677467       -1.1901299973       -1.6717444444
 H        -0.4857430396       -6.6643338976       -4.8891762036
 H         0.7973554209       -7.7645892206       -5.2750132903
 H        -0.6927437730       -8.0072735179       -6.0909304071
 H         1.4363142138       -6.3102045056       -8.7965727684
 H         0.6049670789       -7.7895056275       -8.6075208621
 H         1.9962905193       -7.6706595353       -7.6500595548
 H        -5.2134058158       -6.1606153841      -11.6538335587
 H        -4.7543496419       -5.5040433850      -13.2799708855
 H        -4.8405601545       -4.4736338952      -11.8798346824
 H        -2.4974279555       -7.6099525135      -11.3084535921
 H        -1.7525197186       -7.0897488674      -12.9001633055
 H        -3.3789528255       -7.5027991085      -12.8339429294
 H         0.9423451171       -2.9717576577      -15.4620159200
 H         1.6976140850       -1.9867210350      -16.7441225163
 H         0.7971139461       -3.4563032495      -17.0460890979
 H        -0.5613456149       -0.8327738860      -14.3917909577
 H        -1.1146530592        0.2481729581      -15.7451938197
 H         0.4987483107       -0.1012270499      -15.6042532753
 H        -4.9156676506       -3.0532381153      -19.0991815009
 H        -5.9094860429       -1.8684439628      -18.4029235152
 H        -4.2479092165       -2.1599912239      -17.9646200688
 H        -6.4542290731       -1.1422366216      -21.0367419923
 H        -5.0571561099       -2.3278755710      -21.3416767829
 H        -5.1107233714       -0.5612067580      -21.9103816816
 H        -6.5436673446        5.1214777341      -18.2565720756
 H        -7.9373619915        5.1967307636      -19.3036056221
 H        -6.8156094679        6.5974003211      -19.0080224484
 H        -5.3307233522        5.7006246684      -22.2620959212
 H        -6.5487908277        6.7238814416      -21.3750445679
 H        -6.8416750250        5.0676430645      -22.1707905592
 H         0.1222854783        4.3935273033      -16.8120299846
 H        -0.3863289397        2.9130006909      -17.6743624556
 H        -1.5522524253        4.1291825518      -17.4919342634
 H         1.0127656959        6.4706639781      -19.7506684733
 H         1.5849982588        5.9304594806      -18.0895168363
 H         0.1871916341        6.8225929883      -18.4671617239
 Na       -1.4310333717        1.5548566515      -19.8546529882
 Na       -3.8587400414       -4.7432495196       -7.3726603694
