232

 C         2.0125440252        4.1405252378      -20.2616474917
 C         0.7586437642        3.6449029674      -19.6141475793
 O         0.6202797263        2.4277201054      -19.4750587273
 C        -0.2881220123        4.6294697953      -18.9620424494
 C        -1.4546378878        4.5659976714      -19.9932815588
 O        -1.7004591493        3.5482087911      -20.6451163178
 C        -2.2469960459        5.9117126853      -20.3718396861
 C        -3.5988706966        5.4576507664      -21.0351873634
 C        -4.6037244529        5.1218908699      -19.8751660364
 O        -4.0945048711        4.8473806243      -18.7956652835
 C        -6.0987776684        5.0348032164      -20.1920088504
 C        -6.2516776140        3.3811334069      -20.3246991585
 O        -6.1872115334        3.0136088109      -21.4579639993
 C        -6.3889291995        2.5104897603      -19.0527757111
 C        -6.2663663513        1.0873792259      -19.5171442938
 C        -4.7691300849        0.7758805997      -19.7425012485
 O        -3.8849654562        1.6332958949      -19.7688861504
 C        -4.3922004923       -0.7283395716      -19.9154131230
 C        -2.8885431389       -0.9316910162      -20.3061868673
 O        -2.2688152798       -0.2465068609      -21.0770245372
 C        -2.2835502973       -2.1858711044      -19.6745203955
 C        -0.7999389821       -2.0063842560      -19.1652352973
 C        -0.7786056329       -1.1220644602      -17.8627442133
 O        -0.9258499378        0.0726934787      -17.8487993995
 C        -0.4144576764       -1.9019204299      -16.4822074209
 C        -1.5337722813       -2.8370545945      -16.1907003314
 O        -2.6590943307       -2.5130695483      -16.6368336721
 C        -1.3027802540       -3.8919230919      -15.0796921852
 C        -2.6729382532       -4.2372877444      -14.3602120251
 C        -2.4868903150       -4.4004275011      -12.8689243797
 O        -1.7318518522       -3.6143360889      -12.3118813374
 C        -3.0605305911       -5.7867637892      -12.1075696350
 C        -2.7471702200       -5.4270150025      -10.6600399942
 O        -3.5535826318       -4.8610207411       -9.9654001330
 C        -1.2391468731       -5.6532574799      -10.1759671326
 C        -0.8972454713       -4.7948296686       -8.9102635870
 C        -0.9727596721       -5.4721351604       -7.5105704955
 O        -1.8497076458       -5.4558369535       -6.7074290097
 C         0.4030090359       -6.2088192294       -6.9664953372
 C         1.3232881869       -5.1357584280       -6.4550774003
 O         1.3077669320       -4.0055453592       -6.9524622737
 C         2.4480011737       -5.4913887620       -5.4327056077
 C         2.5046751156       -4.3416053503       -4.3954412359
 C         1.1124359891       -4.1583878247       -3.7888050674
 O         0.1832702527       -4.8405308187       -4.1439527434
 C         0.7911793537       -3.1591246468       -2.5965033102
 C        -0.1750514385       -2.0969582268       -3.2287139641
 O         0.2535226247       -1.0225538894       -3.5641453638
 C        -1.5160368681       -2.5938171607       -3.6677845969
 C        -2.2859653297       -1.4818148215       -4.3922162605
 C        -2.7748330734       -1.9863199197       -5.7877334664
 O        -2.8406514417       -3.1825781184       -6.0792488085
 C        -3.0271598995       -0.9500012163       -6.8962891443
 C        -4.4022332300       -1.1543433061       -7.5512921614
 O        -4.5570684516       -2.2852803292       -8.1371917241
 C        -5.5676769885       -0.1566659847       -7.7491213313
 C        -6.9046385457       -0.8728236248       -8.2514154484
 C        -7.9816315114       -1.1995634032       -7.0575607973
 O        -7.8300282003       -0.8905284034       -5.8792511764
 C        -9.2856551238       -2.0718083114       -7.4894151882
 C        -9.0510196682       -3.5448885939       -7.4991933487
 O        -9.7465399723       -4.3253425367       -8.1166487062
 C        -7.8441767416       -4.1458283872       -6.7104655197
 C        -7.8853629558       -5.6197128912       -6.4097718726
 C        -6.4498308434       -6.2631758760       -6.4358544411
 O        -5.7529308773       -5.9249426170       -7.3829982813
 C        -5.8659501459       -7.1111297280       -5.3219888353
 C        -5.6198138045       -6.2866604657       -3.8922566527
 O        -5.1882756558       -6.9200910420       -2.9670572267
 C        -5.7509931813       -4.8345087532       -4.0340097470
 C        -5.0694715552       -4.1438546906       -2.8264309813
 C        -6.2474457453       -3.4709802730       -1.8762140288
 O        -7.4150690788       -3.4116183901       -2.1893423340
 C        -5.7357850328       -2.9844802781       -0.5129599788
 C        -4.9023875868       -1.6006707460       -0.6244789698
 O        -3.6931164804       -1.6432482222       -0.6115781568
 C        -5.6697107625       -0.3058998386       -0.7772524948
 C        -4.8284761951        0.7899033256       -1.4879849560
 C        -4.3242674473        1.9196000213       -0.4360888833
 O        -5.0108104523        2.3957811876        0.3974990398
 C        -2.7228576605        2.1553675648       -0.4594709049
 C        -2.1174347695        2.0392529346       -1.9115974174
 O        -2.8602139971        1.9368752260       -2.8624733994
 C        -0.6215056095        2.4032653801       -1.9710841534
 C        -2.4620350059        3.6516205395        0.0694743830
 C        -2.1257729264        1.0285046722        0.4506066275
 C        -6.9711833305       -2.6736398115        0.3958461612
 C        -4.8115672745       -3.9754963172        0.2132269340
 C        -6.7822832189       -8.3301634543       -4.8998952466
 C        -4.4650002127       -7.6374632475       -5.6993646063
 C       -10.2508947018       -1.9147433569       -6.2356090507
 C       -10.0594999678       -1.6311511936       -8.7350896647
 C        -2.9543679801        0.5546936659       -6.5205661038
 C        -2.0327065881       -1.1684937851       -8.0415895962
 C         0.0998983018       -3.8524757183       -1.5127468516
 C         2.1424563344       -2.5655344973       -2.1157577431
 C        -0.0643157835       -7.2325405681       -5.9002821447
 C         1.2215116926       -6.8827439435       -7.9969965888
 C        -4.6164710691       -5.8667909710      -12.2165685607
 C        -2.3042925549       -6.9423150223      -12.7494059965
 C         1.1070019845       -2.3130325047      -16.6369195355
 C        -0.4987102023       -0.8193451674      -15.3088054968
 C        -4.9526668807       -1.4625535754      -18.6765819395
 C        -5.0638546919       -1.3099775923      -21.1733655995
 C        -6.8383296070        5.5505986896      -18.9315394734
 C        -6.5994584809        5.6463088446      -21.5098439402
 C        -0.8476769110        3.8960342814      -17.6729178669
 C         0.3034624656        6.0225118721      -18.8915777062
 H         2.6173159536        3.2925339958      -20.4335379570
 H         2.4900476984        4.8214646088      -19.5572873401
 H         1.7377810683        4.7536870088      -21.1615455075
 H        -1.8147591153        6.5478410015      -21.2253980411
 H        -2.3402750261        6.4492054989      -19.4808192695
 H        -3.4212389139        4.4629063126      -21.5590017122
 H        -4.0048042856        6.1118162072      -21.7163668491
 H        -7.2173023278        2.8535467290      -18.4017552359
 H        -5.5170116318        2.7483104104      -18.4821792009
 H        -6.8867615867        0.8987546810      -20.3685175004
 H        -6.6614744172        0.4346251475      -18.7427202377
 H        -2.1688002541       -2.8630125520      -20.5643289623
 H        -2.8985273355       -2.7469273948      -18.9960046361
 H        -0.3437195405       -1.4259730115      -19.9330922925
 H        -0.3924939194       -3.0274317786      -19.1106945158
 H        -0.6187408227       -3.6117778812      -14.2448209562
 H        -0.7292160365       -4.6696597541      -15.6533194227
 H        -3.2119435713       -5.0963875635      -14.7001443970
 H        -3.2716926305       -3.3296247520      -14.4367564169
 H        -0.6221220657       -5.3382203870      -11.0055566431
 H        -0.9895718078       -6.6747047295       -9.9473799066
 H        -1.4506416891       -3.8690481894       -8.8727762930
 H         0.1299617399       -4.3515743916       -9.0653682390
 H         3.3656223751       -5.6458439427       -5.8606747463
 H         2.1541665160       -6.4077146742       -4.9040353203
 H         2.7946916347       -3.4666060500       -5.0083968258
 H         3.2894402759       -4.4454967923       -3.5800940763
 H        -1.9509062898       -2.8149849731       -2.7071868457
 H        -1.4293635973       -3.4497720823       -4.2118164401
 H        -1.5788735986       -0.6872254871       -4.6283337688
 H        -3.0373280742       -1.0116776986       -3.7158734729
 H        -5.3437102649        0.7871274042       -8.3041446119
 H        -5.8549308215        0.1910386247       -6.6666540536
 H        -6.6689885218       -1.9247281627       -8.6475627573
 H        -7.5002497461       -0.2298983291       -8.8111089531
 H        -7.9428421542       -3.6076154026       -5.7438159165
 H        -6.8668336035       -3.8612631178       -7.2285550054
 H        -8.4770941695       -6.0175242510       -7.2992848430
 H        -8.5486700504       -5.6699292967       -5.5321451056
 H        -6.8034350506       -4.5341064366       -4.1288584023
 H        -5.2005245472       -4.3948521679       -4.8706523645
 H        -4.3718086376       -3.2735017446       -3.0426999234
 H        -4.6345384777       -5.0272900676       -2.2784831705
 H        -5.8561871729        0.0216666088        0.2634328035
 H        -6.6639430892       -0.5261334801       -1.1584117122
 H        -5.5549279020        1.1500018308       -2.2545526429
 H        -3.9466828971        0.2552589345       -1.8890725263
 H        -0.1813394441        2.2285312822       -2.9201500631
 H        -0.0652082888        1.9334310086       -1.1495368976
 H        -0.4662998396        3.5038772704       -1.9942379492
 H        -1.4142903646        3.5706667445        0.3988859488
 H        -3.2738961366        3.9102358661        0.7455408197
 H        -2.7132041519        4.3152653915       -0.7896704627
 H        -2.5247891261        1.1438805829        1.4157357789
 H        -1.0560978652        1.0006669731        0.5984427998
 H        -2.5128860863        0.1252723796        0.0161121498
 H        -7.2621328507       -3.5891878932        0.9483229479
 H        -7.6968257255       -2.3280327567       -0.2525714555
 H        -6.7624842285       -1.9166216162        1.1327628953
 H        -5.4606523613       -4.8816745049        0.4357661545
 H        -4.3642433127       -3.6150833984        1.1548785422
 H        -3.9414785076       -4.2402396669       -0.4519490416
 H        -7.7746174103       -8.0599136935       -4.6039377028
 H        -6.3098880135       -8.8147526847       -4.0416612641
 H        -6.9035188572       -9.0220320311       -5.7497111512
 H        -4.3674825863       -8.2724711526       -6.5641235158
 H        -4.0944743383       -8.2404244821       -4.8391555590
 H        -3.9302700684       -6.7656370175       -5.8783211751
 H       -11.2615445183       -2.0572740211       -6.3716179364
 H       -10.1848041964       -0.8779020192       -5.8712415377
 H        -9.9176263798       -2.4011512772       -5.3315756558
 H        -9.3718682575       -1.3587991926       -9.5443465024
 H       -10.8012201702       -0.8911211356       -8.4820265060
 H       -10.6837826169       -2.5169858439       -9.0867081527
 H        -3.2098328662        1.2416394603       -7.3232262352
 H        -2.0023462088        0.8636721614       -6.2185438039
 H        -3.6557653902        0.8573159253       -5.7754135283
 H        -1.0057336787       -0.9307260385       -7.7536808640
 H        -2.0849496933       -0.5978060155       -8.9032865869
 H        -2.0527037128       -2.1521961088       -8.4592468238
 H         0.8004470349       -4.4367716156       -0.9028920213
 H        -0.7355533186       -4.5403010417       -1.9396656160
 H        -0.4345654652       -3.0642170196       -0.9259121571
 H         2.4447999182       -1.8379138126       -2.8064864169
 H         2.9651857131       -3.3684159431       -2.0494036365
 H         2.0940816934       -2.0977762113       -1.1267000937
 H        -0.8053126890       -6.8962274354       -5.1265551687
 H         0.7464243344       -7.6713351921       -5.2948142468
 H        -0.5450784609       -8.0409805835       -6.4306793248
 H         1.3616457996       -6.1571003543       -8.9215748696
 H         0.8180294529       -7.7910292546       -8.3794496517
 H         2.2401698887       -6.9671761852       -7.6404927861
 H        -4.9719756725       -6.7197702535      -11.6527995151
 H        -5.0282065733       -5.9750908210      -13.2032674140
 H        -5.0304876220       -5.0254542445      -11.7682798824
 H        -2.8901291932       -7.8050235067      -12.5772003249
 H        -1.3203732629       -7.1841521264      -12.4095164636
 H        -2.1938764481       -6.7673165060      -13.7909188745
 H         1.5100689181       -2.6928571314      -15.6963964864
 H         1.7628102849       -1.4711598059      -16.7971454593
 H         1.2321048041       -3.0910949045      -17.4738843513
 H         0.2790225906       -0.9892595418      -14.5208173058
 H        -1.4532513584       -0.7506338913      -14.7217768058
 H        -0.3869192564        0.1704519098      -15.8588351581
 H        -4.6011264862       -2.4252398397      -18.4245132123
 H        -6.0064813490       -1.5500972288      -18.8251629730
 H        -4.7861807244       -0.9044767568      -17.7639255732
 H        -6.1939439647       -1.3973642610      -21.0893772827
 H        -4.6640164209       -2.3468123825      -21.2055606603
 H        -4.8069747259       -0.6967290557      -22.1241803341
 H        -6.5559114155        4.9522706642      -18.0089389124
 H        -7.9419255965        5.4498846789      -19.1057638588
 H        -6.5610643528        6.6474787739      -18.9126613822
 H        -6.7408434101        5.0418162920      -22.3378995651
 H        -6.0282304090        6.4649950814      -21.8690479293
 H        -7.6030770066        5.8712238753      -21.1665422975
 H        -0.0858646765        3.3227066896      -17.2546121165
 H        -1.7045243151        3.3240645623      -17.8133286580
 H        -1.0526886731        4.6146867724      -16.8577374133
 H         0.6208397782        6.4113969214      -19.8847043628
 H         1.2548857879        6.0492472469      -18.2750979921
 H        -0.4094109277        6.7570550599      -18.3641179938
 Na       -1.4874758094        1.4452282865      -19.5780750501
 Na       -4.0044077583       -4.4130095539       -7.6696183713
