232

 C         2.0309605585        4.2874915254      -20.2150095011
 C         0.7450497826        3.6552812882      -19.5331135890
 O         0.6243683023        2.3647760482      -19.4466349400
 C        -0.3885750905        4.5731796601      -19.0284945233
 C        -1.5316514763        4.4575494014      -20.0735495269
 O        -1.7762064306        3.4315336742      -20.6802026346
 C        -2.1822356673        5.7398623292      -20.5603444691
 C        -3.5776357853        5.4719629139      -21.1401042283
 C        -4.6282272244        5.1887522468      -19.9116931764
 O        -4.2062576311        4.8076357243      -18.8129534843
 C        -6.2267624995        5.0975861613      -20.1553205664
 C        -6.2329150750        3.4767194993      -20.3569974397
 O        -6.1540798609        2.9176589593      -21.3698960176
 C        -6.3830021529        2.6189420298      -19.0935566638
 C        -6.1831601416        1.1287668567      -19.5385417448
 C        -4.7884086282        0.8245246003      -19.8434805019
 O        -3.9608162875        1.6444241514      -19.8090887284
 C        -4.3813493590       -0.7159536501      -19.9486391192
 C        -2.7983887169       -0.9330985504      -20.1777012502
 O        -2.2083522101       -0.2580871941      -21.0519241546
 C        -2.1568542114       -2.1754581396      -19.5885176422
 C        -0.7227533365       -1.9539780268      -19.1276264156
 C        -0.7275233193       -1.1249819016      -17.8851691666
 O        -1.1601493586        0.0396003149      -17.9273325296
 C        -0.3588264961       -1.7003591372      -16.5334746268
 C        -1.5666976978       -2.7846379322      -16.1863571522
 O        -2.6993030457       -2.6038357334      -16.6588577660
 C        -1.4016687463       -3.9415480578      -15.1887146081
 C        -2.6935078728       -4.2214515395      -14.4405343278
 C        -2.3418916361       -4.3958765594      -12.9266794262
 O        -1.7639155317       -3.5842733059      -12.2651606648
 C        -2.9098421628       -5.6620466697      -12.1062694447
 C        -2.6653082288       -5.4720133237      -10.5752942274
 O        -3.5349328764       -4.9852792092       -9.9013047277
 C        -1.2857861087       -5.7845408677      -10.0520328810
 C        -0.9084180666       -4.9394562689       -8.8408142385
 C        -0.9150400508       -5.5848921510       -7.5124197825
 O        -1.8866551846       -5.3957841423       -6.8158487902
 C         0.3852894424       -6.3036696999       -7.0983087538
 C         1.3399274167       -5.0193169634       -6.5027389599
 O         1.3309507547       -3.9575670790       -7.0362595413
 C         2.3035434385       -5.4065831640       -5.4147350640
 C         2.4131815414       -4.3023169451       -4.3987222399
 C         1.0696020246       -4.2860695594       -3.7364492775
 O         0.1271190470       -4.8847680011       -4.2258552987
 C         0.7915243999       -3.2657686472       -2.5877570269
 C        -0.1202582700       -2.1778826874       -3.3042645233
 O         0.2054697777       -1.0460281726       -3.5534508830
 C        -1.6152342208       -2.6276722969       -3.6378339415
 C        -2.3585139950       -1.5366081762       -4.3567374961
 C        -2.7405668659       -1.7908193693       -5.7582879761
 O        -2.7630011281       -2.9804962707       -6.0948290372
 C        -3.1406292854       -0.8106087990       -6.8650427526
 C        -4.5442513134       -1.2441946418       -7.5136350997
 O        -4.6928539438       -2.2852722952       -8.0826809852
 C        -5.6862105250       -0.2429570420       -7.4990372505
 C        -6.9338784488       -0.7408493417       -8.1590872183
 C        -7.9691998559       -1.2172195994       -7.0913885766
 O        -7.6208648390       -0.8900208506       -5.9964572851
 C        -9.2505312818       -1.9140632581       -7.3764328563
 C        -9.0006952850       -3.5485544600       -7.5429130627
 O        -9.7789781412       -4.2639444849       -8.1385390995
 C        -7.7508328249       -4.0887897386       -6.7007311108
 C        -7.7564351392       -5.6370827524       -6.4095558475
 C        -6.3307555081       -6.1959620228       -6.4053340564
 O        -5.5265083714       -5.9065185046       -7.3207120572
 C        -5.7747547382       -7.1326148064       -5.2904518683
 C        -5.5203735200       -6.3115593813       -3.9602824466
 O        -5.2761741119       -6.8441939621       -2.9167032090
 C        -5.7440449511       -4.7797283807       -3.9665567137
 C        -5.0843051560       -3.9713814482       -2.7618445664
 C        -6.1322528462       -3.4806766207       -1.7854175702
 O        -7.2850862148       -3.4404989997       -2.2284049781
 C        -5.7277799193       -3.0001755772       -0.4366403855
 C        -4.8721603955       -1.6940068880       -0.6271653442
 O        -3.6953647413       -1.8024056694       -0.6717725862
 C        -5.6548742878       -0.2943593486       -0.6871462471
 C        -4.8425438312        0.7549535707       -1.3832306978
 C        -4.3026663152        1.8063956795       -0.5351787772
 O        -5.0455664424        2.4300530448        0.2010332279
 C        -2.7962844883        2.0724280958       -0.4955719489
 C        -2.0653442363        2.1839836372       -1.8903443496
 O        -2.7726301273        2.0880837261       -2.8927451640
 C        -0.6119022868        2.3293866511       -2.1092326989
 C        -2.5410269927        3.5795603221       -0.0068152600
 C        -2.1442655652        1.0645424597        0.4827950416
 C        -7.0342163663       -2.6949547508        0.4006500240
 C        -4.7686956715       -3.9419733859        0.2604019320
 C        -6.6913501216       -8.3900824980       -4.9055838006
 C        -4.4571768140       -7.7398664917       -5.8548214065
 C       -10.1024950958       -1.9217457559       -6.0924498487
 C       -10.0424018037       -1.4285966660       -8.5979891000
 C        -2.9596477094        0.6682194572       -6.3153969824
 C        -2.0743791097       -1.1123967507       -7.9153891102
 C         0.0514063702       -4.0745075482       -1.4333018205
 C         2.1089469171       -2.6075913431       -2.0106057175
 C        -0.0534179296       -7.2649988272       -5.9919018841
 C         1.2940350671       -6.9823080260       -8.1918235462
 C        -4.4229732679       -5.8496800468      -12.3737208221
 C        -2.2598776449       -6.9812297442      -12.7756144269
 C         0.9721621338       -2.4441156895      -16.6736742217
 C        -0.3426473997       -0.6591101026      -15.3406843643
 C        -4.9715107956       -1.4151930363      -18.7033639424
 C        -5.1556696428       -1.3286833697      -21.2371519596
 C        -6.9229074135        5.5128998536      -18.8702189497
 C        -6.7448381075        5.7142667171      -21.4455774531
 C        -0.8524002136        3.9787261132      -17.6409736373
 C         0.0140977530        5.9914027005      -18.8876968922
 H         2.7310873905        3.4968087634      -20.3079208539
 H         2.4499102941        5.1164611047      -19.6870916080
 H         1.7030557361        4.6485376178      -21.1526846971
 H        -1.6307248264        6.2180252536      -21.4271844306
 H        -2.2404206080        6.4358015240      -19.6895101471
 H        -3.6403049338        4.6785218311      -21.8615042819
 H        -3.8986231146        6.4427990018      -21.5628312575
 H        -7.4326383926        2.8773333604      -18.8452317656
 H        -5.8276266164        2.9203375321      -18.1794615780
 H        -6.8043783263        0.9424692775      -20.4145351972
 H        -6.6120068738        0.4469939978      -18.8007866866
 H        -2.1355774832       -2.9341339379      -20.3086257246
 H        -2.7136190604       -2.6204248686      -18.7334399209
 H        -0.0605662931       -1.4090456205      -19.8941940174
 H        -0.4089405180       -2.9587635663      -18.9652811173
 H        -0.6446087228       -3.8815042904      -14.4432645559
 H        -1.0891676572       -4.7689449941      -15.8643000068
 H        -3.2146007397       -5.1717147014      -14.8162663129
 H        -3.4060034649       -3.3921948064      -14.3895840341
 H        -0.5471910917       -5.5973872619      -10.8756087102
 H        -1.2368603708       -6.8533159291       -9.8411775943
 H        -1.5804557889       -4.0267679379       -8.7182373975
 H         0.0498592494       -4.3921611160       -9.1643724667
 H         3.3361637170       -5.5424360897       -5.8568688329
 H         2.0078694552       -6.3787953114       -4.8768365013
 H         2.7014979717       -3.4079443070       -4.9304225318
 H         3.1961009240       -4.4988975579       -3.6493177835
 H        -2.0977870838       -2.9321412987       -2.7219650559
 H        -1.6068103238       -3.4705041341       -4.3341396698
 H        -1.8150603807       -0.5722117071       -4.3156931797
 H        -3.3241918672       -1.3347471700       -3.8576010901
 H        -5.2849043883        0.5997209122       -8.2590149711
 H        -5.9542347321        0.3233912390       -6.5771063233
 H        -6.6698297683       -1.6168542122       -8.6809448702
 H        -7.3659376457        0.0853886930       -8.6804337537
 H        -7.8015908861       -3.5343260940       -5.7831543506
 H        -6.8859347316       -3.7924218138       -7.2657370596
 H        -8.4261143010       -6.0418111143       -7.1814144744
 H        -8.2889748303       -5.6741793161       -5.4328552212
 H        -6.8099821506       -4.6336146887       -3.9527474680
 H        -5.3367271973       -4.1683331323       -4.7424674014
 H        -4.6123113610       -3.0067384181       -3.0883736260
 H        -4.4012891997       -4.7200458179       -2.2664435326
 H        -5.9073093660       -0.0153955402        0.3247870001
 H        -6.6102970622       -0.4567089493       -1.1659550678
 H        -5.6874913069        1.2275453779       -1.9845873226
 H        -4.1228569821        0.2427581681       -2.0004067986
 H        -0.2750122380        1.8489520711       -3.0486519534
 H         0.0163530724        2.1255580978       -1.2473870233
 H        -0.4562954447        3.3352342223       -2.5004032031
 H        -1.5159870222        3.5879072757        0.0930611661
 H        -3.1887418257        3.7902254858        0.9163270410
 H        -3.0913440217        4.1904219028       -0.7333422435
 H        -2.5232168689        1.2204852014        1.4526797641
 H        -1.1166566523        1.3171834708        0.6016652411
 H        -2.3427497923        0.0216486157        0.1548436735
 H        -7.4844949263       -3.6969289992        0.5327208972
 H        -7.6259756423       -1.9957389772       -0.2598402431
 H        -6.8958010684       -2.2854921809        1.3289681976
 H        -5.1926522788       -4.9726662052        0.2475493522
 H        -4.4763305354       -3.6652940767        1.2929219418
 H        -3.8428759897       -3.8668489113       -0.3244354515
 H        -7.6853895676       -8.1565314123       -4.5137116389
 H        -6.1421483456       -8.9846328730       -4.1175873009
 H        -6.8726263955       -8.9173237124       -5.7683635754
 H        -4.5528409407       -8.2569331373       -6.8042683764
 H        -4.0922885979       -8.4630390513       -5.1830959775
 H        -3.8247809852       -6.8845771877       -6.0247966929
 H       -11.0695852254       -2.5029309298       -6.1223279248
 H       -10.4588768599       -0.9437887018       -5.7969294149
 H        -9.5494952712       -2.2453640301       -5.2106630319
 H        -9.2538968375       -1.1754325351       -9.3886070560
 H       -10.7675507942       -0.6665620507       -8.3592982506
 H       -10.6906183967       -2.2476581317       -8.9800938048
 H        -3.3835092877        1.4580446244       -6.8406046819
 H        -1.9535864022        0.8441522872       -6.1821557858
 H        -3.4044556462        0.8347551738       -5.3448490738
 H        -1.1275256769       -0.9242411366       -7.5292582759
 H        -1.9967234632       -0.7353105316       -8.9704309896
 H        -2.0965996016       -2.1619519722       -8.1623843543
 H         0.7892200238       -4.7468535718       -1.0404127834
 H        -0.8197416360       -4.6590575730       -1.8244745684
 H        -0.3164200892       -3.3800435212       -0.6778623558
 H         2.5254350006       -1.8971804668       -2.6651288713
 H         2.9018496601       -3.3602624894       -1.8296977516
 H         1.8550077364       -2.1382187603       -1.0617566106
 H        -0.7429887907       -6.6770367701       -5.3444208030
 H         0.7089502010       -7.6498556671       -5.2393952675
 H        -0.6705316348       -8.0739623803       -6.3347956404
 H         1.5047177952       -6.4340551900       -9.0758020182
 H         0.9100022436       -7.9571369910       -8.4882565834
 H         2.2166260902       -7.0424981486       -7.7559715887
 H        -4.6223200001       -6.9206999496      -12.1016319655
 H        -4.6642435587       -5.8342623050      -13.4343345689
 H        -5.1139881110       -5.2479524168      -11.8478911628
 H        -3.0487205686       -7.7686096499      -12.6982367399
 H        -1.4893870662       -7.4642632805      -12.1994258132
 H        -1.9208741316       -6.9170027081      -13.7868882480
 H         1.0515324857       -3.0306901575      -15.6792724047
 H         1.9421281634       -1.9124724093      -16.5594056697
 H         0.9257783935       -3.0790474162      -17.5131648341
 H         0.2662341071       -1.0848492170      -14.4981942295
 H        -1.2896874927       -0.3801535821      -14.8861648984
 H         0.1203479657        0.2711492764      -15.7624969176
 H        -4.6652004148       -2.4558356085      -18.6240037028
 H        -5.9847659517       -1.3786068817      -18.6700018472
 H        -4.5351029708       -0.9140963940      -17.7977352516
 H        -6.1663631900       -1.0379113969      -21.1860531488
 H        -5.1406328261       -2.4655926432      -21.1628967107
 H        -4.7089744956       -0.9372041033      -22.2512108222
 H        -6.5712663789        5.0709636589      -17.9166827010
 H        -7.9896815251        5.3590670823      -18.9978271548
 H        -6.7678746243        6.5282411166      -18.9694521634
 H        -6.9955981364        4.9519530327      -22.1547738112
 H        -6.0378795055        6.2967280186      -22.0088804857
 H        -7.7132605275        6.1695697647      -21.1899061076
 H        -0.0312488527        3.5662226952      -17.0513001125
 H        -1.6725462969        3.2461532909      -17.6731104900
 H        -1.1449290933        4.8287782524      -16.9874288646
 H         0.5934820847        6.3931116501      -19.7489425403
 H         0.7625954058        6.1092649810      -18.0729378593
 H        -0.8643008067        6.6056370361      -18.5829499901
 Na       -1.5230051587        1.4562533507      -19.5418063571
 Na       -3.8839461545       -4.4558400040       -7.6395733536
