232

 C       -18.9256018456       -5.1780667482       -5.3024024493
 C       -19.2196554639       -6.0054270776       -4.0566415666
 O       -18.4945060848       -6.9995506635       -3.8718769836
 C       -20.5338667887       -5.8963986400       -3.2504793507
 C       -20.0010855863       -5.9203032267       -1.7295801946
 O       -19.5954556186       -6.9256294184       -1.1539903059
 C       -20.0128693441       -4.5090047572       -0.8662847231
 C       -18.8408395802       -4.3559018043        0.1001839146
 C       -17.5584337155       -3.8454143873       -0.5710186458
 O       -17.5670411305       -3.1081372967       -1.5538424646
 C       -16.2307051719       -4.5052708767       -0.0195248082
 C       -16.1644924918       -5.9633647191       -0.6834369172
 O       -17.0185128863       -6.7735190006       -0.4369766842
 C       -14.9575468642       -6.2773851588       -1.5856298377
 C       -14.3897599201       -7.6771057242       -1.3346988167
 C       -14.9126663318       -8.8457727355       -2.1945464486
 O       -16.1127740839       -9.0439752068       -2.3019292874
 C       -13.8728253727       -9.8814173010       -2.6862569226
 C       -12.7277713879       -9.2804206466       -3.5044764480
 O       -12.8307094157       -8.1862169971       -3.9839469094
 C       -11.4860203321      -10.1364001088       -3.8884003772
 C       -10.7644434853       -9.3961631222       -4.9971411697
 C        -9.3649393342       -9.8521848952       -5.2951503677
 O        -8.9180403654      -10.8504236043       -4.7266124603
 C        -8.4168925975       -9.0073720788       -6.2450197839
 C        -8.2509908541       -7.5448818555       -5.6402626048
 O        -8.9493284594       -7.0880872216       -4.7949063126
 C        -7.1033491477       -6.7163863464       -6.2162860536
 C        -7.6108720154       -5.3106119407       -6.6230537195
 C        -8.4074800895       -5.2430692994       -7.9574211397
 O        -8.9620496592       -6.2735363247       -8.2513399510
 C        -8.5397007147       -3.9577530130       -8.8277728472
 C        -7.1903572895       -3.6530935825       -9.5258884021
 O        -6.2457555710       -3.5847249729       -8.7334194830
 C        -7.1156750628       -3.3544111919      -11.0289803944
 C        -5.6882214552       -3.3398977377      -11.5511720061
 C        -5.5909556289       -2.6118085521      -12.9008438459
 O        -6.5015909958       -1.8498860691      -13.2133257574
 C        -4.3209918810       -2.7238389848      -13.8221214884
 C        -2.9487595358       -2.7174628224      -12.9742095358
 O        -2.8993711397       -2.8507075106      -11.7462630584
 C        -1.6701816033       -2.5714782366      -13.7852522044
 C        -0.4123101084       -3.1004798428      -12.9536897642
 C         0.7254266362       -2.1453312134      -13.0124483356
 O         0.8144031616       -1.3486622764      -13.9031275214
 C         2.0767438372       -2.3820797173      -12.2663757119
 C         2.8124327705       -1.0644669571      -11.8811178763
 O         4.0594802820       -1.0916652694      -11.7509523002
 C         1.9493709775        0.1497713193      -11.6646839136
 C         2.4514118390        1.1708173167      -10.5905707061
 C         2.5576690958        2.6729832766      -11.0510979518
 O         1.9411027107        3.0424260888      -11.9984834737
 C         3.5990800865        3.6576903105      -10.3810429896
 C         4.2840549590        4.4036521013      -11.5540508502
 O         5.4415243577        4.0971641264      -11.8845798340
 C         3.6042181112        5.4218385622      -12.4361247424
 C         4.0639113698        6.9346677155      -12.3010010356
 C         5.3372500845        6.9440300688      -13.2209179837
 O         5.3795975355        6.2741624257      -14.2350354737
 C         6.5823100559        7.8742415557      -12.6632240661
 C         7.7359089406        7.8294764281      -13.6931620371
 O         8.0799895764        8.7491195948      -14.3722843097
 C         8.3984306783        6.4458915684      -13.7742913777
 C         9.1925556591        6.3837487354      -15.0008428431
 C         8.5105449618        5.7373251055      -16.2615894394
 O         7.5918873847        4.9477266581      -16.1914800728
 C         8.9718075432        6.1936051196      -17.6622050558
 C         9.8517035798        4.9653416866      -18.1145673534
 O        10.4712117636        4.3914173888      -17.2332865056
 C         9.8766410456        4.6631197888      -19.6192349234
 C         9.5400266149        3.2037271648      -20.0228672645
 C         8.3507976036        2.5410153102      -19.2786513163
 O         7.9014696171        3.0159239480      -18.2135965314
 C         7.6054283234        1.2372638858      -19.7984600619
 C         7.6378980750        0.0148578872      -18.8734434105
 O         8.2329542952       -0.9867959756      -19.1526827402
 C         6.8853578923        0.1997640849      -17.5138217778
 C         7.8199908185        0.7148948610      -16.3137088431
 C         7.1402654884        1.3343334534      -15.1139334300
 O         7.7093678427        2.3133772803      -14.6666362075
 C         5.9611127059        0.6419832569      -14.4037597530
 C         4.6806950806        1.2122719584      -15.0489524655
 O         4.6245891433        2.4195687018      -15.2603206972
 C         3.4241424428        0.3408740125      -15.3498232930
 C         6.0329130454       -0.8934734372      -14.4217775061
 C         5.9710878074        1.0362387779      -12.9537076496
 C         6.1951634607        1.8255337113      -20.2400740629
 C         8.4201098023        0.7316397019      -21.1195912447
 C         7.7302668940        6.5613636864      -18.5143391770
 C         9.8637694278        7.4216227576      -17.8268608383
 C         6.0403122136        9.2771264197      -12.5316413212
 C         7.0617851571        7.2594658864      -11.3761701152
 C         2.8482117077        4.6042957909       -9.3695360858
 C         4.7176352971        2.9156988110       -9.6647510760
 C         1.7926513201       -3.1667087584      -10.8425825834
 C         3.0425921840       -3.3350674048      -13.0723222964
 C        -4.3158061085       -4.0845910413      -14.7093678068
 C        -4.1558021476       -1.5272687371      -14.7511755845
 C        -9.7852404181       -4.2447885221       -9.7667096039
 C        -8.8718946824       -2.8173699297       -7.7600889228
 C        -6.9560110936       -9.7056389336       -6.2749969641
 C        -9.1164043647       -9.0886983257       -7.6448897610
 C       -13.3360964804      -10.6536172225       -1.5310373505
 C       -14.6353912488      -10.9265103029       -3.5559585677
 C       -15.1200224885       -3.5498278782       -0.4303483726
 C       -16.0912444053       -4.8227693921        1.4747085296
 C       -21.2418356734       -4.6561834545       -3.6266354715
 C       -21.3717947278       -7.1461023341       -3.5862792378
 H       -18.6996898294       -4.2279347857       -4.9151980284
 H       -19.7543729300       -5.2276645831       -6.0492288244
 H       -18.0329777950       -5.5646034652       -5.7950086510
 H       -20.9499848898       -4.5145572146       -0.2943081828
 H       -20.0858147567       -3.6600522080       -1.5159303536
 H       -18.7337619205       -5.2879881670        0.7053036632
 H       -19.1082729174       -3.6032143679        0.8424971677
 H       -14.1901874170       -5.5523423352       -1.4114754155
 H       -15.2873192422       -6.1639268274       -2.6333124704
 H       -14.5043104628       -7.8636113218       -0.1792875167
 H       -13.3498923403       -7.6484184083       -1.5727411117
 H       -11.7624486758      -11.1608286238       -4.0362739257
 H       -10.7261544414      -10.1764500365       -3.0875779529
 H       -10.7278578837       -8.3154730817       -4.8542232484
 H       -11.3309078328       -9.5642789478       -5.9935159917
 H        -6.5560852867       -7.2053108006       -7.0531907945
 H        -6.2317282224       -6.8075939058       -5.4668421104
 H        -6.8056309453       -4.6171763213       -6.6451264501
 H        -8.3588282760       -5.0600650547       -5.9631000819
 H        -7.6095546191       -2.4659018430      -11.2404057975
 H        -7.7188329323       -4.1748518859      -11.4930175886
 H        -5.2671730223       -4.3438531403      -11.6265979975
 H        -4.9590328972       -2.8152164540      -10.9275598891
 H        -1.5107861997       -1.4500319195      -13.8648430509
 H        -1.5551309188       -3.0395616473      -14.7192895357
 H        -0.0768452311       -4.1812454305      -13.2237221058
 H        -0.8122421281       -3.2291739694      -11.9364413274
 H         0.9539176982       -0.2846298697      -11.5042274473
 H         1.7775284986        0.7088196610      -12.5828477132
 H         3.3714630524        0.7899790806      -10.0593941153
 H         1.7530122353        1.2107691692       -9.7351961726
 H         2.5674811618        5.3819232889      -12.1656295759
 H         3.8118256190        5.1808628424      -13.4980898201
 H         4.3087765268        7.4301500711      -11.2997930604
 H         3.4438907588        7.7586232948      -12.7933367235
 H         7.7635242051        5.5780110732      -13.6536455171
 H         9.0149870884        6.3127785231      -12.8764777682
 H        10.1274312153        5.8203739318      -14.9208898223
 H         9.5599960879        7.5493688098      -15.1835069917
 H        10.8788956311        4.8097272944      -20.0240671573
 H         9.2711054851        5.3379796915      -20.1710675694
 H        10.4711257656        2.6281832612      -19.8976830636
 H         9.3642206937        3.2419603547      -21.0288866756
 H         6.3993587132       -0.8403186245      -17.3907422496
 H         6.1627173382        1.0360134510      -17.5845202800
 H         8.3792823853        1.4619059225      -16.8328000420
 H         8.6581191064        0.0381757233      -15.9915447279
 H         3.8651417867       -0.6310129746      -15.5914633211
 H         3.0556110102        0.6114358885      -16.3468942039
 H         2.4596710854        0.2455359630      -14.7418908798
 H         5.4925185074       -1.3063589083      -13.6086684696
 H         7.0946770379       -1.2894736890      -14.3751184203
 H         5.6241068553       -1.2288453759      -15.3748785608
 H         5.3046641123        0.6448728130      -12.2335941288
 H         5.7635971828        2.1460573906      -12.8596145317
 H         6.9044064687        0.6929665348      -12.4687689544
 H         5.5649767071        1.0905214990      -20.6734627642
 H         6.5242794396        2.5434187172      -20.9742191264
 H         5.6473142843        2.2081058517      -19.4240405560
 H         8.1802476094       -0.3127959822      -21.3365942523
 H         9.5163094569        0.5638980721      -21.0716120116
 H         8.2926483683        1.4133533339      -21.9819613643
 H         7.1190018976        7.3618240922      -18.0022461848
 H         7.0560325988        5.7446115196      -18.6412695644
 H         8.0179928718        7.0022758570      -19.4217905063
 H        10.7322632903        7.5260693915      -17.1673100005
 H         9.4295296334        8.3110613998      -17.5502780978
 H        10.1087813940        7.4889117257      -18.8255175638
 H         6.6339707182       10.0358888284      -12.0331902090
 H         5.0608122551        9.2862183105      -12.1753536980
 H         6.0850652010        9.7437196804      -13.4998014598
 H         7.8442244846        7.9120639591      -11.0749509440
 H         7.4589590590        6.2405793613      -11.5325137442
 H         6.3056199469        7.2098248260      -10.6268775396
 H         1.8069552664        4.3967825397       -9.0694385007
 H         2.7965427880        5.5594679834       -9.7830138967
 H         3.2110087110        4.7392931529       -8.3983184293
 H         5.4711632345        3.4943419743       -9.2447394354
 H         5.0975886525        2.3394565411      -10.4862066836
 H         4.3199772550        2.2741715007       -8.8551634042
 H         1.3405724652       -2.5803259076      -10.1132650958
 H         2.8064109010       -3.4686851555      -10.4385528397
 H         1.2390374251       -4.0911150469      -11.0356769319
 H         2.7915100189       -4.3065422892      -12.7434393632
 H         4.0512766802       -3.1464426426      -12.8349255716
 H         2.8204090583       -3.3125362431      -14.1020176829
 H        -3.9139388852       -3.8424145161      -15.7099306112
 H        -5.3333659151       -4.3894870514      -14.8803804170
 H        -3.6940857647       -4.9244564993      -14.2931574911
 H        -3.3286653538       -1.3790814863      -15.4480698330
 H        -4.4010864782       -0.5701354480      -14.3227655647
 H        -4.9933210717       -1.6365627281      -15.3939708704
 H       -10.1376389744       -5.3238116514       -9.5615742111
 H        -9.6120519424       -4.2875781334      -10.8983178214
 H       -10.6461832367       -3.6222701334       -9.6679911478
 H        -9.8676736917       -2.4626307405       -7.5873160079
 H        -8.3616381397       -1.8491941923       -7.9965461709
 H        -8.3903465042       -3.0932987023       -6.8021837025
 H        -7.0969983562      -10.7536072100       -6.3139617391
 H        -6.4753645606       -9.4889476167       -5.3372730155
 H        -6.2613900969       -9.3901850347       -7.0731163042
 H        -9.2874951046      -10.1067945258       -7.8502828299
 H        -8.4325608923       -8.7142784307       -8.4472176356
 H        -9.9361988347       -8.3694514982       -7.6445957374
 H       -12.6773272080      -10.0595131980       -0.8278472943
 H       -12.5791792354      -11.3607049383       -1.8583728408
 H       -14.0154535042      -11.2949577211       -0.9756584118
 H       -15.4484719386      -10.4310368785       -3.9043986153
 H       -15.0406857700      -11.6919167498       -2.9271882660
 H       -14.0160022841      -11.3531615724       -4.3119260962
 H       -15.0338244022       -3.3097381287       -1.4254736395
 H       -14.0964146933       -3.7249129213       -0.0832227642
 H       -15.2888202605       -2.5418031260       -0.0429349601
 H       -16.7040373495       -5.6677162665        1.8060950024
 H       -16.2512009151       -3.9093239887        2.1693827949
 H       -15.0819408822       -5.2453131791        1.6288500824
 H       -20.5646257271       -3.7756055157       -3.5983277363
 H       -22.0176782731       -4.2543271317       -2.9396860951
 H       -21.5762039777       -4.6004944480       -4.6477278644
 H       -22.2605924664       -7.3533207937       -2.9048390525
 H       -20.7257602194       -8.0212900593       -3.5888760229
 H       -21.6942350848       -7.0999216671       -4.5836613481
 Na      -18.0124242716       -8.2297368246       -2.0500300741
 Na        6.2439883155        3.9610571507      -14.5413443776
