232

 C         1.8349056873        4.4925113691      -19.8741500397
 C         0.4897394853        3.7734764219      -19.5627371734
 O         0.3849816605        2.5100401253      -19.5153408276
 C        -0.7295108509        4.6166478342      -19.2308341840
 C        -1.7177754716        4.5688159716      -20.5120863723
 O        -2.0985026556        3.5085609338      -20.8597869063
 C        -2.4022051325        5.7955640242      -21.0343368754
 C        -3.7947331632        5.4975449415      -21.3395676612
 C        -4.6499881956        5.2630693978      -20.0419985729
 O        -4.1077506672        5.2873410261      -18.9218683865
 C        -6.1775399713        5.0114408971      -20.1882625184
 C        -6.3725846115        3.5806744263      -20.5129319810
 O        -6.3210074877        3.1546314068      -21.6667218014
 C        -6.4577398558        2.6024665406      -19.2630913434
 C        -6.2375934159        1.0441685613      -19.5357815930
 C        -4.8285334638        0.6859653992      -19.6108389891
 O        -3.9297398077        1.4666829352      -19.3638169830
 C        -4.4503949794       -0.8822855005      -20.0338584512
 C        -2.9146860528       -0.9010062926      -20.2478855083
 O        -2.5450028487       -0.0918624454      -21.1317913308
 C        -2.0025457683       -2.1773624359      -19.8098232068
 C        -0.6876254364       -1.8592969573      -19.1365442973
 C        -0.8204649922       -1.1003682104      -17.8389260127
 O        -1.3892304911       -0.0250365843      -17.8471344065
 C        -0.3298582519       -1.7779180199      -16.5790569475
 C        -1.5315686767       -2.6639299333      -16.0590351377
 O        -2.6631242184       -2.3714459149      -16.3025232844
 C        -1.2090033642       -3.6609191754      -15.0205782079
 C        -2.4322954545       -4.3370268788      -14.4219635192
 C        -2.2814897137       -4.5070344188      -12.9623429867
 O        -1.5953224473       -3.7703395783      -12.2916041997
 C        -2.9730507216       -5.8129877263      -12.3223872679
 C        -2.6549864352       -5.6893644765      -10.7777146171
 O        -3.4873417855       -5.2170577564       -9.9929490091
 C        -1.1648316093       -5.8786428503      -10.2351665759
 C        -0.7691628695       -5.1098034399       -8.9994540425
 C        -0.7561846367       -5.9562722386       -7.6959684384
 O        -1.7822474491       -6.2277468967       -7.0608846933
 C         0.6405559142       -6.4060416042       -7.2168816050
 C         1.4440512075       -5.1807278076       -6.6824239451
 O         1.3653904695       -4.1332655669       -7.2670677706
 C         2.3799208561       -5.4237893736       -5.5067594665
 C         2.2479122277       -4.3186157499       -4.4179506230
 C         0.8361405464       -4.3707338846       -3.7557284966
 O        -0.0316881502       -5.0851345494       -4.2278450450
 C         0.4916093893       -3.4263361109       -2.5509758461
 C        -0.3058976694       -2.2602725712       -3.0580202322
 O         0.2307768706       -1.1929824643       -3.3486008063
 C        -1.8706439418       -2.3927612004       -3.2246593805
 C        -2.3808527835       -1.2962034122       -4.1570184453
 C        -2.9202594759       -1.7369336685       -5.4822283551
 O        -2.8047556876       -2.8554201487       -5.9043242998
 C        -3.3753834475       -0.6024701601       -6.4889118052
 C        -4.6770244085       -1.0824812105       -7.2834653890
 O        -4.8793345313       -2.2356286207       -7.4462054243
 C        -5.6579530840        0.0056176278       -7.6630981368
 C        -7.0876826941       -0.3866690047       -7.7922468530
 C        -7.7536941551       -1.1660558269       -6.5608299765
 O        -7.1672820452       -1.2178972927       -5.5309151889
 C        -9.0583497281       -1.8852816770       -6.8512255741
 C        -8.6684372015       -3.2595755513       -7.3524966242
 O        -9.3251818315       -3.8916198046       -8.1101249572
 C        -7.4220669976       -3.9115031315       -6.7631244399
 C        -7.4191367451       -5.4154504966       -6.6661634914
 C        -6.0370898498       -5.9260366246       -6.4281128611
 O        -5.0735276089       -5.5771005859       -7.1564927421
 C        -5.7348232769       -6.9047229018       -5.2907783045
 C        -5.4389291346       -6.1654021901       -3.9183544285
 O        -5.1668867948       -6.8762088158       -2.9327199316
 C        -5.1908551131       -4.6519724288       -3.9387168280
 C        -4.9233857428       -4.2247038116       -2.4820889719
 C        -6.0746562956       -3.6468280827       -1.7802542761
 O        -7.1764430618       -3.5492785096       -2.2863126357
 C        -5.7386256574       -3.0832108105       -0.3065485359
 C        -4.8792325048       -1.9374167896       -0.6076510754
 O        -3.6988922232       -2.1073779074       -0.8655202629
 C        -5.5394026960       -0.4824398967       -0.6455115901
 C        -4.6180725235        0.5301431756       -1.4022077644
 C        -4.3138574006        1.8806456300       -0.7760835081
 O        -5.2207316140        2.5488138814       -0.2596567382
 C        -2.8023726265        2.2487523229       -0.7013933665
 C        -2.1682772042        2.1584258909       -2.1199583172
 O        -2.8391045258        2.3071857122       -3.1461700931
 C        -0.6305878754        2.0131603496       -2.2337633255
 C        -2.6470204172        3.6197098022       -0.0510520011
 C        -2.1687041709        1.0909943084        0.1469610028
 C        -7.0289703822       -2.8401312698        0.5452541370
 C        -4.7599541788       -4.1518051573        0.3416981050
 C        -6.8413710824       -7.9261689872       -5.1038529709
 C        -4.3839246131       -7.6084270929       -5.5556076627
 C        -9.9548829637       -1.9509345509       -5.6088521022
 C        -9.7796561872       -1.2865458711       -8.0923144865
 C        -3.3369886999        0.7052179513       -5.7700444020
 C        -2.3176806657       -0.5777054970       -7.6752885224
 C        -0.4066650495       -4.2394909665       -1.5641933576
 C         1.7319054166       -2.9733497202       -1.8468905609
 C         0.4368752002       -7.5358744390       -6.0914560951
 C         1.4410658021       -7.1331074575       -8.3700445486
 C        -4.5016103796       -6.0163468537      -12.5345475348
 C        -2.1772188543       -7.0564543230      -12.8153121282
 C         0.8903743937       -2.5919121562      -16.9982193053
 C        -0.0873733048       -0.8535938105      -15.3464649844
 C        -4.9531344445       -1.8753335283      -18.9036291810
 C        -5.1608185996       -1.2556434818      -21.3753466091
 C        -6.9319141784        5.3954466947      -18.8547684038
 C        -6.9292119842        5.9330857561      -21.3806398756
 C        -1.5730268015        4.0426666647      -18.0626265517
 C        -0.4281086867        6.1496487869      -18.8688495839
 H         2.5122495188        3.6675659566      -20.2173764731
 H         2.2942975157        4.9554986831      -18.9836727072
 H         1.6736814086        5.2113744241      -20.6279202005
 H        -1.7991125530        6.1416805714      -21.8897245102
 H        -2.2871378270        6.6318731659      -20.2363821915
 H        -3.8740039507        4.6183338120      -21.8828201255
 H        -4.2480644326        6.3999969288      -21.8071209640
 H        -7.5058465846        2.6619783829      -18.9773960363
 H        -5.8530944620        3.0326330940      -18.4281814416
 H        -6.7045968516        0.7922675209      -20.4753299537
 H        -6.7756210085        0.3979252493      -18.8503760555
 H        -1.8936502992       -2.7922563673      -20.6731915379
 H        -2.7380074663       -2.6992893207      -19.1443904799
 H         0.0108277826       -1.4266047839      -19.8998826825
 H        -0.2689278946       -2.7747907398      -18.8796212125
 H        -0.7679480781       -3.0313943972      -14.2389549741
 H        -0.4265346886       -4.3525073864      -15.4180428364
 H        -2.7588841037       -5.2459003850      -14.9797312265
 H        -3.2141288939       -3.6393626383      -14.7150042682
 H        -0.5097051948       -5.7140830983      -11.1018749430
 H        -1.0102940003       -6.9175584021      -10.0944313065
 H        -1.5489491996       -4.2661946384       -8.9438253377
 H         0.2774423769       -4.7288788409       -9.0934737038
 H         3.4306708498       -5.4010604619       -5.9601890676
 H         2.2258932660       -6.3122699753       -4.9321887061
 H         2.4420696497       -3.2954567011       -4.8048592868
 H         3.0481948050       -4.4754370182       -3.6467716447
 H        -2.4798631711       -2.3183615958       -2.4202068913
 H        -1.9997228414       -3.2924584284       -3.7712996840
 H        -1.5764678304       -0.5552194525       -4.3259609692
 H        -3.1799180739       -0.7129073476       -3.6854402666
 H        -5.5487581957        0.5468498152       -8.7218143093
 H        -5.4713807792        0.9058924217       -6.9713388498
 H        -7.0850249165       -0.9242144991       -8.6947099494
 H        -7.6885028601        0.5466995727       -7.9814232360
 H        -7.2842659554       -3.4904159641       -5.7283105202
 H        -6.5054685879       -3.6218892861       -7.3608167701
 H        -7.8345962918       -5.9092479501       -7.5712526329
 H        -8.0737313530       -5.6443046982       -5.7558075052
 H        -5.8816238543       -3.8910571691       -4.3432573247
 H        -4.2297763340       -4.5167024958       -4.4669248063
 H        -4.0773696632       -3.4807650098       -2.3172077007
 H        -4.6952056937       -5.1285003617       -1.7983568156
 H        -5.7297655047       -0.1341415929        0.3795202146
 H        -6.5199538896       -0.6612599295       -1.1101374986
 H        -5.1942617034        0.7982315118       -2.3568305470
 H        -3.7983682337       -0.1019085893       -1.7573050127
 H        -0.1390965920        1.1326405235       -1.7403009531
 H        -0.2182884867        2.9492769238       -1.8706711952
 H        -0.3219730012        1.8886215772       -3.2637127365
 H        -1.5655353629        3.7628622747       -0.0045334179
 H        -2.9813441962        3.6809308039        1.0360725841
 H        -3.2601738281        4.2291783449       -0.7538382540
 H        -2.7825208875        0.8933160970        1.0196081728
 H        -1.2188210961        1.4494626195        0.4701385151
 H        -2.0611782949        0.1267123680       -0.3891950810
 H        -7.3524846306       -3.7755440621        0.8652765906
 H        -7.7301623558       -2.1998248420       -0.0063576423
 H        -6.7166211431       -2.2347492119        1.3694583778
 H        -5.1891929178       -5.1704538144        0.3804938251
 H        -4.6176703223       -3.8009950370        1.4003145504
 H        -3.7474882663       -4.2133556275       -0.0998199105
 H        -7.8746555565       -7.5822981005       -4.9406815558
 H        -6.4644260242       -8.5312155612       -4.2567072900
 H        -6.8534833132       -8.5254294202       -5.9734435181
 H        -4.4909030129       -8.3880775211       -6.3228091248
 H        -4.2166694015       -8.1075302349       -4.6403201738
 H        -3.5346487217       -6.9075197096       -5.7565375462
 H       -10.8336735152       -2.6122500691       -5.6653572719
 H       -10.2994971003       -0.9872720311       -5.4250856556
 H        -9.5090166080       -2.4412055721       -4.7936568996
 H        -9.3070752570       -1.6324082254       -9.0524379830
 H        -9.9378401674       -0.2031234113       -8.1130818504
 H       -10.7817350262       -1.6524936629       -8.0707268285
 H        -3.5430256116        1.4611548215       -6.4861731621
 H        -2.4091041609        0.9585605643       -5.2658466750
 H        -4.0950903515        0.8261285574       -5.0031974635
 H        -1.3807877994       -0.2810795122       -7.3895531222
 H        -2.7434127131        0.0856535597       -8.4576276324
 H        -2.1568810216       -1.4211232947       -8.2767112379
 H         0.2947325108       -4.9652227552       -1.0244570502
 H        -1.1459788056       -4.8559256425       -2.0792419616
 H        -0.9132326801       -3.6416356594       -0.7259107459
 H         2.4708133069       -2.4538555309       -2.5173960512
 H         2.2895801366       -3.8111709628       -1.5767406772
 H         1.4083810140       -2.3813406436       -0.9873741274
 H         0.1760860207       -7.2169363477       -5.0923358355
 H         1.3409893953       -8.1818301669       -6.0125509250
 H        -0.4080082152       -8.1568285700       -6.3812558842
 H         1.9107412403       -6.5585510591       -9.0927403227
 H         0.8652412545       -8.0120190194       -8.8246114380
 H         2.2905802164       -7.6674451922       -7.8529892912
 H        -4.9157834233       -6.7353980669      -11.8745888214
 H        -4.5947052162       -6.4024285259      -13.5032412557
 H        -5.1051323631       -5.1109169591      -12.5213706018
 H        -1.9609259113       -7.8248466659      -12.0990405781
 H        -1.2082027959       -6.7191567765      -13.0020935448
 H        -2.5495594289       -7.5745749895      -13.6306561118
 H         1.6295721075       -2.6110131574      -16.1428433302
 H         1.5842206256       -2.3100564697      -17.8139791572
 H         0.4656908008       -3.5134779550      -17.2038153378
 H        -0.6316772040       -1.0961261990      -14.3943750940
 H        -0.4498926212        0.1496518806      -15.6350447970
 H         1.0049976885       -0.8350964604      -15.1769073532
 H        -4.7949229461       -2.8837185728      -19.2034119864
 H        -6.0124925163       -1.7525891214      -18.8231098611
 H        -4.6148312532       -1.5957282516      -17.9604846878
 H        -6.2044523986       -1.5096879514      -21.0833450304
 H        -4.6275052639       -2.1326422009      -21.9507185736
 H        -5.0143788149       -0.4717165245      -22.0875932114
 H        -6.3538273156        4.9498437602      -18.0027651693
 H        -8.0473229316        5.1026973651      -18.8985150663
 H        -6.8652617168        6.5089454053      -18.7526702255
 H        -6.2298842082        5.9064002306      -22.1993141229
 H        -7.0604654403        6.9974995968      -21.1745792856
 H        -7.8818513057        5.5521530080      -21.6720648529
 H        -2.0141131941        4.7379357766      -17.4068116258
 H        -0.9147287909        3.4097234587      -17.4919074202
 H        -2.3231762634        3.4482267528      -18.4474912496
 H         0.2645987932        6.6686687588      -19.6066188137
 H         0.1016165723        6.2029536872      -17.8991215328
 H        -1.4318429824        6.5472008719      -18.7049148538
 Na       -1.4677976581        1.3822406559      -19.5933768769
 Na       -3.4281909374       -4.2210885578       -7.8397036823
