232

 C         1.6540081384        4.6155424585      -19.7426498795
 C         0.3656664892        3.8664063285      -19.5129225988
 O         0.3024876036        2.6717562639      -19.6626484088
 C        -0.9438065350        4.7012559954      -19.1418113609
 C        -1.8507450963        4.5855274311      -20.4988873696
 O        -2.0178855934        3.4396728059      -21.0145619148
 C        -2.4474016715        5.8132123498      -21.2738321491
 C        -3.9808419028        5.6480842791      -21.5847197691
 C        -4.7372780396        5.5103008657      -20.2150162061
 O        -4.1550347145        5.6319317794      -19.1719346053
 C        -6.2622308357        5.0607626182      -20.2224164673
 C        -6.3294664813        3.4173786395      -20.4824997416
 O        -6.4304461070        3.0795523827      -21.6045991931
 C        -6.4229520231        2.5134174411      -19.2254960613
 C        -6.2680121281        1.0982105591      -19.8095366110
 C        -4.8417124971        0.5041515573      -19.5814753044
 O        -4.0629106877        1.1846072079      -18.9232721734
 C        -4.4866656461       -0.8613204585      -20.1746653004
 C        -2.9243049566       -0.9748344188      -20.5043457688
 O        -2.3796392897       -0.1624626373      -21.1498256433
 C        -2.1995099891       -2.1954838941      -19.9083474433
 C        -0.8629720956       -1.6833281954      -19.4320393705
 C        -0.7930226457       -1.0237737063      -17.9642388365
 O        -1.2066677784        0.1335806013      -17.8395872910
 C        -0.2153653606       -1.7714645013      -16.6324543031
 C        -1.3897254828       -2.6009403666      -15.9601926259
 O        -2.5781890623       -2.3422752358      -16.2696981608
 C        -1.1938441809       -3.8359843319      -14.9798614160
 C        -2.4857481408       -4.5391909224      -14.4263136996
 C        -2.2534607119       -4.8090309448      -12.9068719839
 O        -1.7165797532       -3.9231398653      -12.2392530338
 C        -2.8872825002       -6.0074314659      -12.2212189056
 C        -2.5918021597       -5.6118668464      -10.6673037588
 O        -3.3736843407       -5.0160855618       -9.9968294265
 C        -1.1701061118       -5.9640768177      -10.3089926393
 C        -0.5356071467       -5.1492997293       -9.1048458750
 C        -0.6607895105       -6.0958947891       -7.8322425862
 O        -1.7023717831       -6.1229842015       -7.2455290064
 C         0.7441855339       -6.7257069495       -7.2944259318
 C         1.4041083366       -5.3736726491       -6.5819669119
 O         1.4640530161       -4.3617405329       -7.2496330897
 C         2.3488631708       -5.3515223394       -5.3974990778
 C         2.0364466188       -4.2124657507       -4.4338761704
 C         0.7475990640       -4.4703328329       -3.7571776862
 O        -0.1721689493       -5.0581476626       -4.2613557612
 C         0.4352955535       -3.5808604969       -2.4888272366
 C        -0.2277751106       -2.2283625931       -3.0733976542
 O         0.4006814607       -1.2307579218       -3.2681618705
 C        -1.6292939390       -2.4666377518       -3.3934041730
 C        -2.3566367910       -1.2972463370       -4.0154020356
 C        -2.7827128965       -1.6305057248       -5.4758208930
 O        -2.7604423105       -2.8272119312       -5.8578813906
 C        -3.3919317638       -0.5352568973       -6.3974561485
 C        -4.6993459684       -0.9308931582       -7.0950048478
 O        -4.9713760283       -2.0964924031       -7.5346567874
 C        -5.7166905559        0.1887598236       -7.4105548627
 C        -7.1231232856       -0.3345208639       -7.7985460082
 C        -7.6876543338       -1.0092981588       -6.6256574862
 O        -6.9711963274       -1.0944825684       -5.6086966749
 C        -9.0587924389       -1.7666469450       -6.8010813330
 C        -8.5840228818       -3.2192730631       -7.2849945229
 O        -9.2156774877       -3.8485485014       -8.1093028001
 C        -7.4256579501       -3.8539602426       -6.5096709962
 C        -7.2977258484       -5.4234321085       -6.8574540592
 C        -5.8414346283       -5.8775744050       -6.4295634308
 O        -4.8636066098       -5.4991478846       -7.0090516157
 C        -5.5891712262       -7.0622255724       -5.3618414003
 C        -5.3471934896       -6.3198130645       -3.8734831789
 O        -5.4457284883       -7.0393993055       -2.9414920088
 C        -5.0387803334       -4.8058862881       -3.8242067106
 C        -4.7460566058       -4.3170941913       -2.4523645972
 C        -5.9770011588       -3.7470610834       -1.6340627292
 O        -7.0327094925       -3.6451485339       -2.2100657622
 C        -5.7341414598       -3.1468925858       -0.1712415726
 C        -4.8249057287       -1.8292898510       -0.4850152208
 O        -3.6006850104       -1.9288791863       -0.5537750740
 C        -5.4583653359       -0.4622953529       -0.6291553291
 C        -4.7352355036        0.4725645329       -1.6076755634
 C        -4.3406100895        1.7419983689       -0.8890929623
 O        -5.2195928415        2.4740826421       -0.5007870636
 C        -2.7628270332        2.1161769109       -0.7664734150
 C        -2.1627027161        2.0510802440       -2.2218262706
 O        -2.9426965268        2.2861047143       -3.1271009890
 C        -0.7203805162        2.0736836889       -2.3826492024
 C        -2.6101221636        3.6474271566       -0.2517048609
 C        -2.1931314805        1.1603430512        0.3519410807
 C        -7.0980930520       -2.7516012650        0.4326066370
 C        -4.9870059147       -4.1725135539        0.6851388662
 C        -6.8341975531       -7.9082559048       -5.0762957618
 C        -4.3266594001       -7.9040348491       -5.7301200590
 C        -9.7315006864       -1.9292549066       -5.3700549509
 C       -10.0477709431       -1.0183455990       -7.6418366009
 C        -3.5788982411        0.8181241497       -5.7371645464
 C        -2.3523028245       -0.5048759904       -7.5321572754
 C        -0.5159123550       -4.3558155103       -1.6221457889
 C         1.7165184867       -3.1705454073       -1.6495806561
 C         0.4150193126       -7.7724974082       -6.2088877095
 C         1.7920002244       -7.0473930224       -8.3706453474
 C        -4.4817647621       -6.0136142407      -12.4199994146
 C        -2.2548397888       -7.3171097821      -12.7610359151
 C         1.0429664556       -2.6378450733      -16.7981116202
 C         0.1758422848       -0.5378069175      -15.7312370113
 C        -4.9686718013       -1.7630350678      -19.0337551652
 C        -5.3349181790       -1.1279662538      -21.5431921012
 C        -6.8257030010        5.4457941192      -18.8475051780
 C        -7.0196021869        5.7746774403      -21.3203647476
 C        -1.7218350267        4.0536109348      -17.9708327302
 C        -0.5267306100        6.2123741855      -18.8140338752
 H         2.3642086977        4.0635256915      -20.2491503705
 H         2.0234138025        4.8132476852      -18.7670176831
 H         1.3908257858        5.5766700621      -20.2499519624
 H        -1.8413628728        5.8786974911      -22.2005913319
 H        -2.1543855539        6.6222574200      -20.7433224891
 H        -4.1595578092        4.6692746296      -22.2054851760
 H        -4.4123430280        6.5486934549      -21.9758097945
 H        -7.4150877851        2.6434226527      -18.7294380296
 H        -5.5934866410        2.7882238732      -18.5650282042
 H        -6.4521334145        1.2818682892      -20.9164514355
 H        -7.1345166577        0.4389024642      -19.5879775583
 H        -2.1027190950       -2.9096718679      -20.7441983160
 H        -2.8561718092       -2.6675651691      -19.2474726289
 H        -0.6377507663       -0.8752721101      -20.1307032648
 H         0.0132255949       -2.4211256621      -19.6524908392
 H        -0.4901519832       -3.5408864564      -14.1994110502
 H        -0.7047515839       -4.5479576315      -15.6095404784
 H        -2.6649372096       -5.3866587096      -15.0741588151
 H        -3.3738349471       -3.9167971889      -14.7591409330
 H        -0.6525531334       -5.9991765325      -11.2711264781
 H        -1.0939510008       -7.0861092502      -10.1013724535
 H        -1.0815630065       -4.2537156260       -8.9000554964
 H         0.5356412232       -5.0462202210       -9.2626365732
 H         3.3260982348       -5.1460120436       -5.7741234590
 H         2.3093232293       -6.3161369275       -4.7797449310
 H         1.9456269522       -3.3379435180       -5.0609138453
 H         2.8102074356       -3.9626340964       -3.7535147428
 H        -2.1623575509       -2.5263530280       -2.3347344443
 H        -1.7676418941       -3.4235078930       -4.0110864454
 H        -1.7995096237       -0.3576704298       -3.8875303329
 H        -3.3020505196       -1.1234427295       -3.4804100148
 H        -5.3791676170        0.8635679358       -8.1051392133
 H        -5.8091701204        0.7671593268       -6.5462246372
 H        -7.1136345642       -1.1052887801       -8.6840847688
 H        -7.8682858964        0.3476763851       -8.1639834421
 H        -7.6126609444       -3.6235992931       -5.4908638184
 H        -6.4803115746       -3.4434584721       -6.7427760130
 H        -7.3770883454       -5.5418810963       -7.9457982267
 H        -8.0635904029       -5.9950297740       -6.4142678668
 H        -5.9054340690       -4.2684640960       -4.2316053710
 H        -4.2049446281       -4.5740175728       -4.4980382806
 H        -3.9702429776       -3.5721541753       -2.4282235739
 H        -4.3489431820       -5.1321739636       -1.8924802150
 H        -5.4324692039       -0.0189538927        0.3625316027
 H        -6.4962382171       -0.6219289177       -0.9156203440
 H        -5.4097591754        0.5586673309       -2.4113360411
 H        -3.8890735470       -0.0488962779       -2.0748142599
 H        -0.2361033896        1.4567791480       -1.6646491840
 H        -0.4018307304        3.1495721351       -2.3063611895
 H        -0.3873182778        1.7272530396       -3.3862318817
 H        -1.6135002809        3.8091369337        0.1372877483
 H        -3.2311466582        3.6440133361        0.6069529277
 H        -2.9535688646        4.2730588907       -1.0821725186
 H        -2.7470066976        1.2244041183        1.2841221302
 H        -1.0968464811        1.2669402578        0.4335022352
 H        -2.2967477026        0.1511243107       -0.0259126316
 H        -7.4551338475       -3.7052697590        0.9910704063
 H        -7.7819330073       -2.6140063081       -0.4101330236
 H        -7.0250489799       -1.8308049595        1.0112764864
 H        -5.6080654599       -5.0948584762        0.7454376495
 H        -4.8215390123       -3.8237020117        1.6927231024
 H        -4.0604337236       -4.5250452090        0.2102724595
 H        -7.5553143826       -7.2360976572       -4.6514641777
 H        -6.4875653233       -8.5633294179       -4.2747817508
 H        -7.2804986357       -8.4898153236       -5.9111605798
 H        -4.5056470958       -8.3716795734       -6.6821171654
 H        -4.1442435261       -8.6264790149       -4.8912770375
 H        -3.4785002969       -7.2792365669       -5.7040605365
 H       -10.7184504041       -2.3243526806       -5.3740713038
 H        -9.7751356186       -0.9310568500       -4.8567966535
 H        -9.3987099886       -2.8094330811       -4.8150367479
 H        -9.5980074622       -0.4890189540       -8.4983518788
 H       -10.4688055433       -0.2210667594       -7.0162207400
 H       -10.9292057830       -1.6023765388       -8.0710136092
 H        -3.7358598863        1.5380221410       -6.5546128196
 H        -2.6071046653        1.0842716752       -5.4233948159
 H        -4.2221486888        0.9367838128       -4.8394025487
 H        -1.3523788336       -0.1201187064       -7.1692088632
 H        -2.6701098559        0.1163997296       -8.3538629778
 H        -2.0118850579       -1.4584526535       -8.0295611191
 H        -0.0536863847       -5.0745594036       -1.0524833875
 H        -1.3319530909       -4.8490855062       -2.1761290506
 H        -0.9075998420       -3.7120678742       -0.9057779844
 H         2.2392584286       -2.3981857116       -2.0658477159
 H         2.4679818284       -4.0440600314       -1.6226983942
 H         1.4090226735       -2.9329141748       -0.6474540693
 H        -0.4716315240       -7.4894375484       -5.5739323938
 H         1.2917255215       -7.8740041244       -5.5594905070
 H         0.1967978501       -8.7760988518       -6.5890296343
 H         1.5709644598       -6.4129951816       -9.2530505733
 H         1.6977959281       -8.0693417892       -8.6643674393
 H         2.7779017919       -7.0210811381       -8.1238125801
 H        -4.8888677836       -6.9704462103      -11.9833028281
 H        -4.8032144634       -5.9178772399      -13.5046163145
 H        -4.9697682128       -5.2079352560      -11.9252729740
 H        -2.4576464904       -8.2128195931      -12.1807523743
 H        -1.1827036556       -7.4227189653      -13.0385325997
 H        -2.8403119680       -7.5777087325      -13.6735103432
 H         1.2582046197       -3.3140579192      -15.9224482909
 H         1.8688528294       -1.9428281257      -16.9494582701
 H         1.0248048631       -3.2924544279      -17.7452641368
 H        -0.1719638613       -0.8512624876      -14.7450877460
 H        -0.4101696651        0.3536619436      -15.9726586645
 H         1.2579796178       -0.3578956082      -15.6283651710
 H        -5.0401173620       -2.7415225630      -19.5312892407
 H        -5.9647624191       -1.4946828586      -18.7035297191
 H        -4.3542254278       -1.5218319664      -18.0809101128
 H        -6.2068591588       -1.4791450225      -21.1552378425
 H        -4.8787722617       -1.8275616128      -22.1424371089
 H        -5.4236106314       -0.2522025006      -22.2298508222
 H        -6.1740850837        4.8997412500      -18.1905195313
 H        -7.8318602525        5.2606726631      -18.7489670342
 H        -6.6307637699        6.4404800038      -18.6046977228
 H        -6.3195567030        6.1644426819      -22.0473586995
 H        -7.6988255253        6.5469949210      -20.9367974770
 H        -7.7693746158        5.1557231815      -21.8709083925
 H        -2.8309046281        4.1704912791      -18.1049995912
 H        -1.4764551878        4.5647858550      -17.0305205363
 H        -1.4651614201        2.9030917558      -17.9072366334
 H        -0.1304208534        6.6831787102      -19.6845027414
 H         0.3127048159        6.0602046077      -18.1110043257
 H        -1.3141567130        6.7675283813      -18.2765764701
 Na       -1.8037443103        1.5429666170      -19.8471373677
 Na       -3.3829235569       -4.1624401933       -7.6734260671
