232

 C         1.6088105683        4.6672140393      -19.6272542694
 C         0.1739698741        3.9714748662      -19.6015703766
 O         0.1670328841        2.7573803940      -19.7016156890
 C        -1.1534668513        4.8573874931      -19.2778153134
 C        -2.0299571586        4.5653487157      -20.5607522639
 O        -2.2893773854        3.5101955950      -20.9875077516
 C        -2.4576166444        5.8760490896      -21.4046447182
 C        -3.9778975449        5.6598007922      -21.7295953854
 C        -4.8672685442        5.7197710169      -20.3517558414
 O        -4.2433057202        5.9277864392      -19.3235672330
 C        -6.3549200006        5.1501844274      -20.2499826929
 C        -6.3346905498        3.6114017243      -20.5688053327
 O        -6.3401161198        3.1850618008      -21.7652228677
 C        -6.4520566382        2.6119693083      -19.2865465857
 C        -6.2777064269        1.1515208680      -19.7171224322
 C        -4.8870196457        0.5230411067      -19.5945927588
 O        -4.0238947983        0.9772696713      -18.8571712593
 C        -4.5365019863       -0.9800295438      -20.2238059759
 C        -2.9704697720       -1.0110731566      -20.4150907062
 O        -2.5047448034       -0.2189581725      -21.3114199999
 C        -2.0866535056       -2.2397324022      -19.8014329860
 C        -0.6384261304       -1.8825010754      -19.3596679845
 C        -0.6693965495       -0.9936683395      -18.1151792659
 O        -1.0768573073        0.1342110742      -18.0383976282
 C        -0.2548526880       -1.6862478404      -16.7414070827
 C        -1.4916017076       -2.4881099699      -16.0461315533
 O        -2.5965343096       -2.3106727519      -16.3707656059
 C        -1.0860336528       -3.7211188139      -15.2097972275
 C        -2.2843932717       -4.5661517729      -14.6017273998
 C        -2.1878522162       -4.7259145556      -13.0922579476
 O        -1.6765531738       -3.8619562186      -12.4125045385
 C        -2.9835576572       -5.9409538568      -12.2127151257
 C        -2.3995110860       -5.6375327701      -10.7180251296
 O        -3.0820510797       -5.0259546858       -9.8971092001
 C        -1.0728716674       -6.2263212387      -10.2137710235
 C        -0.4039538311       -5.2592450008       -9.3533634632
 C        -0.4439350637       -5.9743212650       -7.9487011436
 O        -1.4815925238       -5.9133906794       -7.2543139661
 C         0.8120334166       -6.7381146611       -7.3125497065
 C         1.5398484236       -5.3679251783       -6.6593484934
 O         1.4839368042       -4.2638160830       -7.1734701331
 C         2.3237346154       -5.5402567100       -5.3679730139
 C         2.1258713419       -4.2569633695       -4.4530118162
 C         0.7263229404       -4.4006645278       -3.6544960998
 O        -0.1540316623       -5.0474374923       -4.2095169738
 C         0.4241233867       -3.7007893828       -2.2879953980
 C        -0.2586025829       -2.3833445908       -2.8292372485
 O         0.4222444610       -1.4236072201       -3.2034520742
 C        -1.8101592206       -2.3794178112       -3.1698507252
 C        -2.2315857983       -1.1936139911       -4.1613736685
 C        -2.6904820627       -1.6323969230       -5.5200218477
 O        -2.7816994864       -2.7722607605       -5.8924229311
 C        -3.2426153181       -0.4180319440       -6.4386556880
 C        -4.6793371886       -0.7923999721       -7.2210654256
 O        -4.7654966075       -1.8698091799       -7.6482633936
 C        -5.6983224936        0.3085026560       -7.4802381355
 C        -7.0984439865       -0.3177614272       -7.7374241255
 C        -7.7583329676       -0.9948105654       -6.4963855767
 O        -7.0430720624       -0.9001108983       -5.5097517860
 C        -9.0509309846       -1.8507202652       -6.4934843281
 C        -8.6322277082       -3.2730197226       -7.1052066052
 O        -9.1453883128       -3.5580837119       -8.1488768476
 C        -7.5983801853       -4.1199100147       -6.4055309012
 C        -7.2486020611       -5.4329334523       -6.8811438936
 C        -5.8527887339       -5.9129122336       -6.3254190177
 O        -4.7799242278       -5.4795164719       -6.7918487693
 C        -5.7293555416       -7.0723272816       -5.3311196346
 C        -5.3948238760       -6.5357416969       -3.7825416268
 O        -5.5253211655       -7.2449257729       -2.8358900536
 C        -4.8931853871       -4.9898652827       -3.7005832231
 C        -4.5468064754       -4.4469515447       -2.2009005416
 C        -5.8454248211       -3.8040588327       -1.5942173810
 O        -6.8699947563       -3.7896624037       -2.1979694910
 C        -5.7359404505       -3.1344353572       -0.1407799493
 C        -4.7990833582       -1.8761776713       -0.3739227440
 O        -3.5780509850       -1.9570532981       -0.3226290819
 C        -5.5704440501       -0.5921830056       -0.6669461829
 C        -4.7017014285        0.4275365579       -1.5165231015
 C        -4.4330313332        1.8539485879       -0.8850424297
 O        -5.2808829332        2.6194887804       -0.5534883895
 C        -2.8097443129        2.1900040066       -0.8477246264
 C        -2.2260643756        2.0393487474       -2.2416334431
 O        -2.9096972018        1.9643673775       -3.2433625173
 C        -0.6929677582        2.0478688891       -2.3998519486
 C        -2.7703302744        3.6824707621       -0.2953299374
 C        -2.1344157961        1.1846340417        0.1537470002
 C        -7.1426412296       -2.6988891168        0.3237340400
 C        -5.1467562883       -4.0139800671        0.9532171414
 C        -7.0264289887       -8.0622523840       -5.3001359722
 C        -4.4804720977       -8.0037316794       -5.8201069604
 C        -9.3727448194       -1.9643997281       -4.9902835086
 C       -10.1937060391       -1.2154800198       -7.3706911756
 C        -3.3591961855        0.9280798326       -5.7553045668
 C        -2.3130799622       -0.2523411340       -7.5922172617
 C        -0.4669287986       -4.5252785329       -1.4165587145
 C         1.7239041204       -3.4368746360       -1.5494616341
 C         0.3292454940       -7.8293352028       -6.3447057171
 C         1.7736280343       -7.3225549282       -8.3834082030
 C        -4.4710371968       -5.8823464946      -12.2707544709
 C        -2.4761269390       -7.3326196101      -12.6209765130
 C         0.9919868520       -2.6090694168      -17.0293026050
 C         0.1530193217       -0.6638740633      -15.6702394223
 C        -5.0928854392       -2.0209313313      -19.2575734140
 C        -5.2166281201       -1.1346636695      -21.5657790422
 C        -6.8047195837        5.5154245786      -18.7907712642
 C        -7.2671846202        5.7578692339      -21.2963225267
 C        -1.7098234488        4.0321535364      -18.0000488601
 C        -0.9279223047        6.3282545427      -18.8329478569
 H         2.3951565669        3.8688314343      -19.8823298183
 H         1.8639555657        4.9599091637      -18.5621190699
 H         1.6670672796        5.4899318703      -20.3285203967
 H        -1.9273826891        6.0421919173      -22.3318664003
 H        -2.1645522883        6.8343348119      -20.8154195709
 H        -4.1188784131        4.6751252076      -21.8926871879
 H        -4.2667880587        6.3641131813      -22.5422879826
 H        -7.4232901285        2.7817620459      -18.8900959644
 H        -5.6251624174        2.8578818193      -18.6162011399
 H        -6.5100800781        1.1462625736      -20.7737140140
 H        -7.0215561528        0.4481629442      -19.3228116975
 H        -2.0861722118       -2.9336338944      -20.6684686228
 H        -2.6895819471       -2.7730022931      -18.9788857311
 H         0.0364416070       -1.4004232118      -20.0780374115
 H        -0.1465446697       -2.7756030969      -19.2131625938
 H        -0.4019762537       -3.5296160849      -14.3526637818
 H        -0.4892190081       -4.4106782617      -15.8803210801
 H        -2.3062490742       -5.4884249154      -15.1992960763
 H        -3.2750071354       -4.2338371637      -14.7561028377
 H        -0.4450605030       -6.5654283233      -11.0349525745
 H        -1.2894340009       -7.1518614176       -9.7412283063
 H        -1.0618001749       -4.4050024907       -9.1526138606
 H         0.5637777620       -5.1443453640       -9.7393702208
 H         3.3927603979       -5.5705562594       -5.6149662919
 H         2.0115555147       -6.3546032972       -4.8381516996
 H         2.0523184570       -3.4162916450       -5.1772456497
 H         3.0191132697       -4.0153684623       -3.8254057437
 H        -2.3991811924       -2.3137126436       -2.3402191530
 H        -2.0643343665       -3.2306076665       -3.7690080473
 H        -1.4894811762       -0.3812473802       -4.2023127755
 H        -3.1510341191       -0.6814953162       -3.8261540583
 H        -5.3342127889        0.8784089775       -8.4572564903
 H        -5.8560715590        1.1714446760       -6.7422915589
 H        -7.1975446180       -0.9025825882       -8.5768885645
 H        -7.7449875347        0.5663877441       -8.0831708912
 H        -7.6672288503       -4.0785530273       -5.2770049566
 H        -6.6284183406       -3.5436120212       -6.5731608478
 H        -7.1135203472       -5.4035454786       -7.9516945308
 H        -8.0816682106       -6.1651574804       -6.7394770988
 H        -5.7053861942       -4.4224909938       -4.2449352814
 H        -3.9962544212       -4.8785844552       -4.3624124948
 H        -3.7615688743       -3.6576216262       -2.1396897262
 H        -3.9897729425       -5.2779550137       -1.6720680895
 H        -5.7458243213       -0.1034756075        0.3154730479
 H        -6.5447866178       -0.8050660806       -1.1470610763
 H        -5.2540704566        0.4029623804       -2.4708698903
 H        -3.7732324568       -0.0478254218       -1.8657600088
 H        -0.1305119152        1.5233857588       -1.5838749172
 H        -0.4335831784        3.0889569826       -2.4239660441
 H        -0.3909367295        1.6914055181       -3.3730523650
 H        -1.7368091728        4.0968183901       -0.0247078257
 H        -3.4067115801        3.5817474761        0.5662106801
 H        -3.1143286576        4.2726909999       -1.1177012040
 H        -2.6022878747        1.5895792540        1.0696063333
 H        -1.0805831669        0.9415606626        0.1331715878
 H        -2.6038533653        0.1867580773        0.0428569016
 H        -7.6654255937       -3.5676649032        0.3535893402
 H        -7.6656695973       -2.1385790174       -0.4359104209
 H        -7.0550977939       -2.1727748943        1.3019049759
 H        -5.5602493864       -4.9620422846        0.9283936596
 H        -5.3095447829       -3.6375272669        1.9449983666
 H        -4.1236221060       -4.1855253567        0.7555227774
 H        -7.9237412022       -7.4872815792       -4.9668874299
 H        -6.8466222138       -8.9316902949       -4.6914448592
 H        -7.1131913261       -8.4070012060       -6.3453768712
 H        -4.8317100294       -8.4662133637       -6.7435086761
 H        -4.2364788398       -8.6452565432       -5.0216235466
 H        -3.5378012397       -7.4015409746       -5.9208307084
 H       -10.1334910856       -2.6846842853       -4.6542343227
 H        -9.6284085540       -0.9576982168       -4.7955823524
 H        -8.6051892464       -2.3440495472       -4.3295230411
 H        -9.8247374726       -0.8715416796       -8.3113556391
 H       -10.6830231907       -0.3048862252       -7.0169263899
 H       -10.8436817518       -1.9693713493       -7.6386815517
 H        -3.5296201149        1.7727054915       -6.4633482514
 H        -2.4248335532        1.2607360859       -5.1363878897
 H        -4.1537278232        0.7827048207       -5.0241836684
 H        -1.2752322638       -0.2090631398       -7.2556193894
 H        -2.4328636700        0.6535885298       -8.2407978989
 H        -2.2228486258       -1.0950973043       -8.2488901737
 H        -0.0104309292       -5.4888805373       -0.9913885699
 H        -1.2798667103       -4.8568272337       -2.0091550541
 H        -0.8827247751       -4.0613236793       -0.4826615402
 H         2.4539945191       -2.6933921699       -2.1155829110
 H         2.2182457032       -4.2959635822       -1.2197474184
 H         1.4195501436       -2.8829778706       -0.6324511155
 H        -0.5380248633       -7.4477222237       -5.9222347960
 H         0.9367057395       -8.2433079815       -5.5825295419
 H         0.0133122389       -8.6735074708       -6.9698501371
 H         1.9736781416       -6.6000653877       -9.2080300034
 H         1.5097538229       -8.2947731616       -8.8263393729
 H         2.7537260735       -7.6547948194       -7.8300998479
 H        -4.8507238765       -6.8337469279      -12.0072346407
 H        -4.8618668775       -5.5720078522      -13.2088317787
 H        -4.8993835842       -5.1307160295      -11.5173678952
 H        -3.1468883665       -8.1211869125      -12.2121118063
 H        -1.4902965462       -7.5961708608      -12.2152785256
 H        -2.3436608229       -7.6762673027      -13.6757102365
 H         1.2305330676       -2.9466019949      -16.0518717360
 H         1.7973510780       -2.0566700626      -17.5968040134
 H         0.8839804952       -3.5710407607      -17.5122147526
 H         0.8796619941       -1.0454668046      -14.9866168497
 H        -0.7145348598       -0.2050848451      -15.2342527748
 H         0.6374977941        0.1056865812      -16.1936401506
 H        -5.0130465371       -3.0461393605      -19.6281139433
 H        -6.2071596789       -1.7280669978      -19.2052742392
 H        -4.7346262274       -1.7528181315      -18.3223864030
 H        -6.3108419422       -0.6691959556      -21.5142561772
 H        -5.3131071180       -2.2354904251      -21.8221430508
 H        -4.6112804672       -0.6817218867      -22.3098367130
 H        -6.2176053852        5.2835004771      -17.9336744709
 H        -7.8793963304        5.1932848257      -18.8255097923
 H        -6.9272372587        6.6729669908      -18.8397211488
 H        -6.8304566314        5.8377353108      -22.3293379892
 H        -7.7796236889        6.6033032014      -20.8665631827
 H        -8.1436195784        5.1650800775      -21.4382073935
 H        -2.3669295814        3.2480179199      -18.3543165361
 H        -2.3971570049        4.6928302464      -17.4331550331
 H        -0.9316129277        3.6628216352      -17.4033947901
 H        -0.5149316894        6.7711005453      -19.7412716193
 H        -0.4881146437        6.4293431359      -17.8594535604
 H        -1.9175760944        6.7093130634      -18.8408253453
 Na       -2.0322998225        1.5790404920      -19.7946136416
 Na       -3.1173811603       -4.0654720707       -7.6690775237
