232

 C         1.3260548689        4.8117370070      -19.5467471024
 C         0.0055958726        4.0430180998      -19.6041538204
 O         0.0287133420        2.8338889559      -19.8359890674
 C        -1.2830992792        4.8984150551      -19.3077403468
 C        -2.2754657406        4.6592984597      -20.6552305040
 O        -2.7276353548        3.4748700037      -20.7229568918
 C        -2.7538584221        5.8235810916      -21.5614571665
 C        -4.2220164460        5.6910045480      -21.7771782092
 C        -4.9094763229        5.7525509594      -20.4408273651
 O        -4.3669896015        6.1763625756      -19.4174539605
 C        -6.4135076587        5.1585192453      -20.2593914745
 C        -6.3138570796        3.5574378221      -20.6156836645
 O        -6.0630507868        3.2850863708      -21.7304139612
 C        -6.2381204061        2.6445912283      -19.3343608677
 C        -6.2989077605        1.1645404324      -19.8306027927
 C        -4.8991209649        0.5288677607      -19.6915285770
 O        -4.0920623150        1.0163453584      -18.9304922523
 C        -4.5566831972       -0.9528178250      -20.3024277731
 C        -3.0450423222       -1.1137661513      -20.3200893178
 O        -2.4801820526       -0.3321559856      -20.9859716915
 C        -2.3329719103       -2.3033420031      -19.6558390449
 C        -0.9142418192       -1.8842638791      -19.4552546441
 C        -0.7367794844       -1.0849804247      -18.1830681526
 O        -0.8737606926        0.1395499799      -18.0796307827
 C        -0.2584590057       -1.8068742640      -16.8826928016
 C        -1.4309041581       -2.7135568345      -16.2561408277
 O        -2.5783317994       -2.3511271147      -16.5410391696
 C        -1.1647613566       -3.7277089074      -15.1881725594
 C        -2.2261749587       -4.6706530627      -14.6203453718
 C        -2.0913454518       -4.6520921118      -13.0909834172
 O        -1.4356513556       -3.8081456715      -12.5422440506
 C        -2.8676685362       -5.7456564560      -12.2957518666
 C        -2.4213834505       -5.6707590872      -10.8654246240
 O        -3.0410223923       -4.9714249955      -10.0772481466
 C        -0.9480701387       -6.2466833643      -10.5792196495
 C        -0.1439742860       -5.3819385107       -9.4175663429
 C        -0.3731445977       -5.8012064801       -7.9367021315
 O        -1.3061265732       -5.5058227344       -7.2664043708
 C         0.8240957024       -6.5533079439       -7.1734736960
 C         1.6972845562       -5.3970925007       -6.6172124786
 O         1.6208508687       -4.3388329825       -7.2052629498
 C         2.3893773803       -5.7231377453       -5.2396242097
 C         2.0953533922       -4.6504960655       -4.1614611817
 C         0.6878088274       -4.5972882242       -3.6880837760
 O        -0.2405555631       -5.2156264783       -4.1651861423
 C         0.3729589468       -3.7603479432       -2.3614542198
 C        -0.3105644994       -2.3914356934       -2.8038973680
 O         0.4964070204       -1.5062879080       -3.0213891923
 C        -1.7470920036       -2.2521498657       -3.2033586602
 C        -2.0025738253       -1.0434295441       -4.1871635880
 C        -2.7125815432       -1.4170992059       -5.5828030312
 O        -2.6379208180       -2.6307350438       -5.8379385541
 C        -3.2069595068       -0.4055508322       -6.6138870013
 C        -4.4467062892       -0.8651519578       -7.4334664727
 O        -4.5330985709       -2.0446544231       -7.8080662937
 C        -5.6319549196        0.0606402493       -7.5519831825
 C        -7.0962272617       -0.3845402277       -7.5800095919
 C        -7.5582692842       -0.9504700652       -6.2542484408
 O        -6.9478563138       -0.6999002994       -5.2477990822
 C        -8.8710630974       -1.8932728454       -6.2142938300
 C        -8.4418065757       -3.2213072994       -6.9110132335
 O        -8.8489861688       -3.5057568498       -8.0284106338
 C        -7.5138008749       -4.1341757360       -6.0978755407
 C        -7.1554770518       -5.4472382579       -6.9618512405
 C        -5.8698409992       -5.8140535220       -6.2331602137
 O        -4.8535236197       -5.2384763885       -6.5620324170
 C        -5.8639106247       -7.0580774090       -5.2776370435
 C        -5.5001817002       -6.6359010327       -3.8195105720
 O        -5.6289769810       -7.4441220401       -2.9137644050
 C        -4.7231631969       -5.2227119825       -3.4897331264
 C        -4.7531309610       -4.9797934512       -2.0145477796
 C        -5.8279555461       -4.0129763077       -1.5650184178
 O        -6.8647438170       -3.8700957373       -2.2461465983
 C        -5.7686291362       -3.1563565560       -0.1885836822
 C        -4.9640418257       -1.9071894452       -0.3641124543
 O        -3.7483640974       -1.9786058008       -0.2967234556
 C        -5.6150251304       -0.5325310033       -0.7368598643
 C        -4.6519682813        0.3457846013       -1.5787189674
 C        -4.4044425709        1.8350378833       -0.9887036688
 O        -5.3302743368        2.4928433426       -0.5687696278
 C        -2.8036480095        2.2833337793       -0.7694887632
 C        -2.1448491290        2.0707754753       -2.1736402246
 O        -2.9020979895        1.8129656117       -3.1112103577
 C        -0.6988418417        2.1955132280       -2.3419863539
 C        -2.6639401980        3.7313586557       -0.3723915697
 C        -2.2064294442        1.3124304573        0.3037560158
 C        -7.2932081529       -2.9036040173        0.2062290437
 C        -5.0266902213       -4.0046087695        0.8383087385
 C        -7.1452710908       -7.9598553622       -5.1945365045
 C        -4.5582135216       -7.9918268198       -5.5154693927
 C        -9.3728596743       -2.1344190452       -4.8061532633
 C       -10.0608033161       -1.2969244313       -6.9770433473
 C        -3.3199969084        1.0654302851       -5.9926602534
 C        -2.0653204904       -0.2982847501       -7.6808017855
 C        -0.5374552497       -4.6351158372       -1.4780055215
 C         1.6111070075       -3.2693196899       -1.5339529699
 C         0.2893007924       -7.6487808817       -6.1278244653
 C         1.7047784993       -7.2860606523       -8.3138268224
 C        -4.3886290504       -5.3418859331      -12.3313026360
 C        -2.6981201640       -7.1226573872      -12.9667331195
 C         1.0523883367       -2.5771198776      -17.1462685106
 C        -0.0982935240       -0.7926167773      -15.7075563140
 C        -5.2001636952       -2.1260562295      -19.3786140258
 C        -5.1265175433       -1.1287156507      -21.7075389940
 C        -6.9855953355        5.4768633896      -18.7879035692
 C        -7.1860965760        5.9496198395      -21.4054413379
 C        -2.1680026333        4.1911524668      -18.1737924082
 C        -0.9677567313        6.4223136527      -18.9919587691
 H         2.1438478182        4.1486953745      -19.4835599798
 H         1.3278146964        5.3756773930      -18.6531909307
 H         1.4824175791        5.4252230699      -20.4417857341
 H        -2.3382748440        5.7822659107      -22.6041001881
 H        -2.3467951505        6.7099079918      -21.1928211379
 H        -4.5809414901        4.6095328229      -22.0512195736
 H        -4.5508097895        6.4891131066      -22.3936831929
 H        -7.0117882775        2.9033990485      -18.5663781419
 H        -5.2036058907        2.7790082499      -19.0023122823
 H        -6.6864030534        1.0951423669      -20.8673231296
 H        -6.9737581488        0.5379770209      -19.2388747925
 H        -2.3563696182       -3.0971177685      -20.3747671176
 H        -2.8311584135       -2.6304960515      -18.8077162702
 H        -0.4606589282       -1.2893212923      -20.2593245101
 H        -0.2965589246       -2.8457998508      -19.5335501141
 H        -0.8942808648       -3.2792517429      -14.2204365019
 H        -0.2741641468       -4.2315183044      -15.4910422605
 H        -2.2399813189       -5.6475187885      -15.1088737623
 H        -3.2884394761       -4.3147803228      -14.8125096670
 H        -0.3874271784       -6.1742062734      -11.5117102116
 H        -1.1211360534       -7.3558560135      -10.4197769878
 H        -0.4893328585       -4.3389906215       -9.3626538526
 H         0.9634968012       -5.5610844765       -9.6333487755
 H         3.5119751934       -5.7495544297       -5.3534224900
 H         2.0159454936       -6.6689879661       -4.6941710318
 H         2.3699791394       -3.6200980571       -4.4044693713
 H         2.6961861726       -4.8948103330       -3.2890520590
 H        -2.4713442916       -2.1440774688       -2.3255671515
 H        -2.0754156860       -3.1619768929       -3.7693749698
 H        -0.9619588591       -0.7963786942       -4.4547717751
 H        -2.3899178927       -0.1356935969       -3.6962312304
 H        -5.4770237958        0.6002412611       -8.4622498944
 H        -5.5658163362        0.7955709369       -6.8041042512
 H        -7.2229399205       -1.2482135442       -8.3776763171
 H        -7.6773128350        0.3213063109       -8.0888153946
 H        -7.8496793268       -4.3560446871       -5.0946684067
 H        -6.5946691955       -3.5796445713       -5.8753078860
 H        -7.0226593107       -5.1918512544       -8.0626647918
 H        -7.8842945093       -6.2622736090       -6.9785033690
 H        -5.2479270656       -4.4185226299       -3.9967154148
 H        -3.7425054082       -5.2500161350       -3.9808666676
 H        -3.7229547755       -4.8305806483       -1.5996178858
 H        -4.9788917634       -5.9294949679       -1.5118848983
 H        -5.7009688491        0.0418191915        0.1817215869
 H        -6.6006192932       -0.6469878009       -1.1699228471
 H        -4.8530421797        0.3435594980       -2.6781819801
 H        -3.6706640285       -0.1682137080       -1.5130109710
 H        -0.2889029125        1.5011607078       -1.6233102290
 H        -0.3848930460        3.2337724638       -2.0916491464
 H        -0.3721442835        2.0111958854       -3.3767532612
 H        -1.7158668724        4.1460214501       -0.5567386299
 H        -2.9754313547        3.6667349637        0.7022420233
 H        -3.3335746893        4.3270728111       -1.0645730593
 H        -2.8178440402        1.2847195842        1.1562303876
 H        -1.2247054414        1.7318224589        0.5437075066
 H        -1.9294946549        0.3640379244       -0.1122553085
 H        -7.8657669688       -3.8767271972        0.3356642980
 H        -7.8647817520       -2.4313634958       -0.6376192767
 H        -7.2537942193       -2.3775310378        1.1016784710
 H        -5.4100059584       -5.0746601751        0.9625179347
 H        -5.1972197357       -3.5624708074        1.8392516754
 H        -3.9281788485       -4.0731964417        0.6589257610
 H        -7.9451549669       -7.3463365966       -4.8684559368
 H        -6.9386825444       -8.7571976111       -4.4407427202
 H        -7.2686338735       -8.4605095852       -6.1168638369
 H        -4.7070732094       -8.4954303122       -6.4588416270
 H        -4.2966479237       -8.6145661349       -4.6464461558
 H        -3.7611841444       -7.3051738011       -5.5703091176
 H        -9.7470961357       -3.1696066649       -4.7978269717
 H       -10.1003601533       -1.4338600564       -4.4009750520
 H        -8.5714302545       -2.2004577243       -4.0672137631
 H       -10.1303453022       -1.2887377862       -8.0862158061
 H       -10.0134902646       -0.2551745461       -6.7844830971
 H       -11.0231493609       -1.7915837519       -6.6824766018
 H        -3.6280776289        1.7395565668       -6.7520034395
 H        -2.3804289140        1.3722379636       -5.6823001997
 H        -4.0138614038        1.0170905068       -5.1507203651
 H        -1.0585002700       -0.0308412204       -7.4586009586
 H        -2.2605755088        0.4189299965       -8.4799132461
 H        -1.9588926471       -1.3116022813       -8.0525182846
 H        -0.0722807944       -5.5027955878       -1.0828507739
 H        -1.5051518289       -5.0153875431       -1.9455096440
 H        -0.8316859448       -4.0763843970       -0.5860464169
 H         2.1186073586       -2.6053820788       -2.1385487344
 H         2.2425803710       -4.1479931943       -1.2113240124
 H         1.4318653245       -2.7124872590       -0.6429502040
 H         0.0783903278       -7.2097352627       -5.1079489734
 H         1.1659221731       -8.3356409321       -5.9708597814
 H        -0.4886046115       -8.3164543381       -6.4047617082
 H         2.4989951089       -6.7342540286       -8.7089034656
 H         1.1006278801       -7.4569474892       -9.2417525803
 H         2.0662503874       -8.1953926044       -7.9513943113
 H        -4.9288577951       -5.9419057300      -11.5884837636
 H        -4.9087010274       -5.4303185584      -13.2872119489
 H        -4.4687749100       -4.3749844526      -12.0366816107
 H        -2.9648364118       -7.9243505764      -12.3117493154
 H        -1.7478730089       -7.3150151669      -13.3714457316
 H        -3.2261039544       -7.2154983737      -13.8366782426
 H         1.9018167145       -2.3353459709      -16.4538162194
 H         1.1479275049       -2.4905770122      -18.1689998441
 H         1.0610085916       -3.6274464166      -16.9361977132
 H         0.8919297752       -0.9865245725      -15.2373164437
 H        -0.9529065063       -0.9209475544      -15.0449412358
 H        -0.1929364699        0.3076598213      -15.9973011972
 H        -4.6443886242       -2.9528713190      -19.7869350410
 H        -6.2039186478       -2.2559545464      -19.5376934535
 H        -4.8820217622       -1.9496390170      -18.3253929011
 H        -6.1567583491       -1.0295439479      -21.6328291194
 H        -4.8957951089       -2.1261347806      -22.1324783344
 H        -4.7023981729       -0.3242265972      -22.3230669839
 H        -6.2478064312        5.1918249948      -17.9561110330
 H        -7.9931750476        5.0629816190      -18.6843736654
 H        -7.0773917624        6.5127332356      -18.7077500580
 H        -7.3277448077        5.3780892999      -22.2496387832
 H        -6.7423930945        6.9163526828      -21.4946843172
 H        -8.1957197473        6.2663599626      -21.0943484486
 H        -1.9070475052        3.1457931801      -18.0463551509
 H        -3.1922083709        4.1658313148      -18.4577694642
 H        -2.0142353153        4.7923590532      -17.2802180063
 H        -0.3893219965        6.7926634466      -19.8232113958
 H        -0.5188812915        6.3239695859      -17.9935620616
 H        -1.8768649500        7.0745265702      -18.9741025929
 Na       -1.8129059373        1.4716398370      -19.7464860407
 Na       -3.1280072053       -4.0836908724       -7.7847119234
