232

 C         0.8747828465        5.3916230851      -19.7955071332
 C        -0.3467732482        4.4973182556      -19.6948044731
 O        -0.2335985398        3.2802370381      -19.8715975528
 C        -1.7513927677        5.1293178888      -19.4857274243
 C        -2.6872556127        4.6401308645      -20.6617070420
 O        -2.9861359462        3.4261190208      -20.7499643776
 C        -3.0691695746        5.5680226966      -21.8751458951
 C        -4.5852878304        5.7978462278      -21.9798944842
 C        -5.2640594702        5.7589656313      -20.5668687462
 O        -4.6938856913        6.2058353857      -19.5616504328
 C        -6.7171244743        5.3294666500      -20.4782891392
 C        -6.5061880565        3.7028993272      -20.7158054140
 O        -6.1041374825        3.3916496001      -21.7805489698
 C        -6.8687560445        2.7103187675      -19.6330650919
 C        -6.5674156660        1.2386220046      -19.8785597957
 C        -5.0608383979        0.7467226335      -19.8872621684
 O        -4.1901618333        1.2514470419      -19.2010829970
 C        -4.7255889255       -0.6921822019      -20.7096539561
 C        -3.2021481035       -0.9178258536      -20.6420742487
 O        -2.4286230964       -0.1679914747      -21.1531470626
 C        -2.6991985861       -2.2174887135      -19.9015826084
 C        -1.1270731725       -2.2016168357      -19.7680087944
 C        -0.8193218330       -1.3360113978      -18.4752452744
 O        -1.0996643251       -0.1296471297      -18.4097521311
 C        -0.2073663425       -2.0185075169      -17.1483837086
 C        -1.1052322967       -3.1517973893      -16.5382021743
 O        -2.1956554963       -3.3405471323      -17.0723321648
 C        -0.6114246606       -3.9136660354      -15.3183817447
 C        -1.8502467016       -4.4095289425      -14.5026613566
 C        -1.5705502962       -4.6290856677      -13.0282120339
 O        -0.6199647415       -4.1238306246      -12.5099460742
 C        -2.7369424242       -5.1988210806      -12.1358945126
 C        -2.3676177426       -5.1583086454      -10.6763232832
 O        -3.1764022246       -4.7287294612       -9.8490006524
 C        -1.0010094232       -5.7836006759      -10.2655786339
 C        -0.1840331023       -4.8688068914       -9.2796496912
 C        -0.3990927496       -5.3745295742       -7.9068528280
 O        -1.1340330271       -4.9159602892       -7.1002900306
 C         0.6123269806       -6.5573439407       -7.3074810888
 C         1.5541135821       -5.5302696815       -6.3049398019
 O         1.9513342680       -4.4352367001       -6.6762783090
 C         1.9707716922       -6.0187346529       -4.8645576790
 C         1.9806718649       -4.8655618346       -3.8306708201
 C         0.5095433760       -4.6037043300       -3.3002227806
 O        -0.4051986582       -5.0086148656       -3.9844471304
 C         0.1888230421       -3.6467290255       -2.1229094495
 C        -0.2770996618       -2.3451052838       -3.0040563385
 O         0.6363681091       -1.5772955900       -3.3748618802
 C        -1.6814647136       -2.2003443085       -3.5757256477
 C        -1.6779870963       -1.1038094518       -4.6726635288
 C        -2.2467861027       -1.6357231854       -5.9791581549
 O        -2.4900124320       -2.8215311173       -6.0882983501
 C        -2.5466158943       -0.7001533646       -7.1611141235
 C        -4.0969999567       -1.0416201916       -7.5679800608
 O        -4.4009044005       -1.9990770515       -8.2527840362
 C        -5.0915326361       -0.0946856150       -7.0101952665
 C        -6.5898801495       -0.6104670005       -7.1107621061
 C        -7.1262072350       -1.0306899902       -5.6853676420
 O        -6.5566392521       -0.5563452050       -4.7485581224
 C        -8.3925122993       -1.8836812765       -5.5690815909
 C        -8.1561305336       -3.3794596211       -6.2686234488
 O        -8.6476594929       -3.6649204647       -7.3024706328
 C        -7.3669426052       -4.4299298483       -5.3674536135
 C        -6.1457096180       -4.8581325831       -6.1835392916
 C        -5.2991173518       -6.0437261681       -5.8714782502
 O        -4.2066381778       -6.0721345180       -6.3756922507
 C        -5.8133850775       -7.2027139266       -5.0427590369
 C        -5.7889886834       -6.8759655637       -3.4377820776
 O        -6.4435581524       -7.4699802992       -2.6081285387
 C        -4.6791531442       -5.8693635723       -3.0280368040
 C        -5.0061625077       -5.4379195791       -1.5653877586
 C        -5.9340425604       -4.2937679666       -1.5858960504
 O        -6.5605329524       -4.0431712786       -2.6141249345
 C        -5.9335066598       -3.3274180160       -0.3560537792
 C        -4.8450835751       -2.2713275421       -0.8087084719
 O        -3.6521047695       -2.6311659381       -0.9470042446
 C        -5.3868144992       -0.9690415122       -1.2103953357
 C        -4.2720489333        0.0556355725       -1.7038758717
 C        -4.2965287452        1.3417529203       -0.7802546214
 O        -5.3292358933        1.7063997000       -0.2510414772
 C        -2.9912587779        2.1908904309       -0.6355260525
 C        -2.0281979953        2.0817093178       -1.8678369235
 O        -2.4932833583        1.6756046022       -2.9519016271
 C        -0.6474608804        2.6901664280       -1.8226701385
 C        -3.4448299057        3.6844176922       -0.4409377592
 C        -2.3587267846        1.6718808047        0.7794307031
 C        -7.3324392888       -2.6588936759       -0.2724174784
 C        -5.5036145019       -3.9711016101        0.9686011872
 C        -7.1896434331       -7.6707725594       -5.5228646403
 C        -4.7408747236       -8.3572686446       -5.1806141313
 C        -8.6602056512       -2.1078569051       -4.0296591752
 C        -9.6553978826       -1.1650284294       -6.1834662322
 C        -2.3689913698        0.8337438066       -6.9009548604
 C        -1.4850014168       -1.0569277106       -8.2541337864
 C        -0.8234795328       -4.2579816560       -1.1774171435
 C         1.5117299288       -3.2766380373       -1.3565013273
 C        -0.2701087107       -7.4950240030       -6.4942722745
 C         1.5625994607       -7.2773264861       -8.3218728158
 C        -3.9849689145       -4.2396600656      -12.4238560333
 C        -3.0767638540       -6.5799933965      -12.7006701502
 C         1.2738285092       -2.5425084697      -17.4140650146
 C        -0.3185611017       -0.9446241932      -15.9940968283
 C        -5.6226098740       -1.7924527030      -19.9552685314
 C        -5.1431484930       -0.7214587590      -22.1548148254
 C        -7.3054724448        5.5753809133      -19.0869962005
 C        -7.6179014299        5.8374770337      -21.5717205418
 C        -2.4090489027        4.6012350827      -18.2082249225
 C        -1.7546411384        6.7458405931      -19.3948131809
 H         1.7651392640        4.7646368376      -19.9355121363
 H         0.9678952482        6.1509894073      -19.0430692105
 H         0.6812760568        5.9159462232      -20.7626647851
 H        -2.7307822833        5.1239793714      -22.8730001839
 H        -2.6662423556        6.5509654210      -21.7807303981
 H        -5.1210675942        5.0995035149      -22.7039214546
 H        -4.8053048563        6.7413907131      -22.3037993566
 H        -7.9207831984        2.8897718758      -19.4106444480
 H        -6.2636993541        3.0384589997      -18.7909382369
 H        -6.8970690108        0.8376008238      -20.8608068399
 H        -7.1002143817        0.6274921719      -19.1506017919
 H        -3.1634057124       -3.1384851097      -20.4859738542
 H        -3.0738863706       -2.2571248190      -18.8790372343
 H        -0.6895837502       -1.7410457824      -20.5915355933
 H        -0.8247194714       -3.2680369039      -19.6416721973
 H         0.0225139158       -3.3267261338      -14.6036892494
 H         0.0005829887       -4.7400623346      -15.6489031028
 H        -2.1834452557       -5.3450461795      -14.8787350060
 H        -2.6054694358       -3.6559241171      -14.7715395077
 H        -0.4886861396       -5.8252628839      -11.1975991580
 H        -1.1937412109       -6.7805465324       -9.8338372665
 H        -0.2510637288       -3.8191462930       -9.4262621370
 H         0.8971915613       -5.0275758668       -9.5146489198
 H         2.9965510071       -6.4129079661       -4.9006069301
 H         1.4673761069       -6.8520762569       -4.4085621675
 H         2.2658322071       -3.9106081947       -4.3113177144
 H         2.6793210992       -5.0618510803       -3.0476162500
 H        -2.3452821768       -1.9087334548       -2.7293108285
 H        -2.1811031781       -3.0893918496       -3.9032245834
 H        -0.6206737123       -0.8160453166       -4.8868857883
 H        -2.1450366245       -0.2059063546       -4.2700401642
 H        -4.9894442616        0.7371859758       -7.8327289523
 H        -4.9566902128        0.3130970475       -5.9734665094
 H        -6.7388380852       -1.3191454266       -7.9396250242
 H        -7.0778225825        0.1914342866       -7.5354911894
 H        -7.9703944096       -5.2379021645       -4.9984005094
 H        -7.0365081699       -3.8550909525       -4.5066654928
 H        -5.5223817986       -4.0055790853       -6.3309338127
 H        -6.4894929323       -5.1032062819       -7.1452273321
 H        -4.7765317532       -5.1374810694       -3.8256095815
 H        -3.7322517092       -6.3811777924       -3.2349505185
 H        -4.1484351792       -5.3022067253       -0.9532186558
 H        -5.4010661810       -6.3011674613       -1.0404388156
 H        -6.0317523284       -0.4734714470       -0.4639810547
 H        -6.0625393320       -1.0600176422       -2.0834636764
 H        -4.6152978168        0.4898827668       -2.5857068571
 H        -3.2422991286       -0.2861342441       -1.7943559449
 H        -0.1209043710        1.7718897322       -1.7273799060
 H        -0.4523970413        3.2494010382       -0.8996111074
 H        -0.4768515533        3.2647071992       -2.7484155144
 H        -2.6519357127        4.2145848733       -0.0463968117
 H        -4.3341658676        3.7737793989        0.2277983570
 H        -3.8566303753        4.0631645269       -1.3668022287
 H        -3.1097837277        1.5959589122        1.5480462879
 H        -1.5988393740        2.3806702121        1.1449522716
 H        -2.0584801367        0.6397541889        0.7107640908
 H        -8.0088045494       -3.4298968731        0.2029455020
 H        -7.6329261340       -2.3188473016       -1.2919568395
 H        -7.3939044695       -1.8191172309        0.3475282126
 H        -6.1644896240       -4.8041578079        1.3308116651
 H        -5.4215522658       -3.2366776811        1.7558957790
 H        -4.4540943261       -4.3087366952        0.9423418997
 H        -8.0600298852       -7.1808788970       -5.1396637393
 H        -7.1789354101       -8.7492903097       -5.2323637218
 H        -7.1177488277       -7.5416694512       -6.5846334695
 H        -4.7279096512       -8.8440294954       -6.1435936708
 H        -4.9791115228       -9.1287136295       -4.4313343278
 H        -3.8092766477       -7.8877287197       -5.1110824211
 H        -9.4542989487       -2.8246870888       -3.8404570366
 H        -9.2029847721       -1.2334672974       -3.5553994297
 H        -7.6776618807       -2.1181176838       -3.5464301128
 H        -9.5816410618       -1.0842271477       -7.2774320801
 H        -9.9930828096       -0.2698275827       -5.7573287558
 H       -10.5432952412       -1.8055784040       -5.9238937472
 H        -2.4444550973        1.2064390295       -7.9467284090
 H        -1.4038802872        0.8636950727       -6.4650048647
 H        -3.2133133441        1.2562739230       -6.2698887932
 H        -0.4957493183       -0.8541429932       -7.7753052649
 H        -1.5581081515       -0.5718214909       -9.2650318604
 H        -1.4810648108       -2.1442290282       -8.5626677920
 H        -0.4395899494       -5.1357721775       -0.8181150967
 H        -1.7826549573       -4.4841966056       -1.6184920699
 H        -1.1120190174       -3.6456995089       -0.3700315417
 H         2.0563893600       -2.6532734352       -2.0450476401
 H         2.1798712474       -4.1623650191       -1.1832310102
 H         1.3689276140       -2.7349337324       -0.4039929613
 H        -0.5964866721       -7.0242900152       -5.5325510021
 H         0.1396863765       -8.4989081352       -6.2589534575
 H        -1.2134196715       -7.5847185398       -7.0018799581
 H         2.5526020161       -6.9084004600       -8.2349193786
 H         1.2749089983       -7.3229056939       -9.4650016475
 H         1.7022554168       -8.3626808217       -8.0932886053
 H        -4.8689912861       -4.5280843539      -11.7635294975
 H        -4.3272781935       -4.4367228809      -13.4863301697
 H        -3.7627185217       -3.2349912396      -12.1943405065
 H        -4.0154687791       -6.9345567735      -12.1691375555
 H        -2.3409447347       -7.4095436817      -12.5159078949
 H        -3.4985308586       -6.4525745706      -13.6964038175
 H         1.6051467277       -2.3079181495      -18.4898106892
 H         1.3509844571       -3.6066980238      -17.4103609642
 H         1.9417677403       -2.2361548947      -16.6165405186
 H        -0.3796401123       -1.3058574785      -14.9615510901
 H        -1.2756343798       -0.4721424851      -16.1486061326
 H         0.4584429776       -0.1653096032      -16.1583551348
 H        -5.5110410636       -2.8145066442      -20.4497363377
 H        -6.5933803683       -1.3753669587      -20.0052845543
 H        -5.1827475314       -1.8207447767      -18.9036133159
 H        -5.9312950298       -0.0232350291      -22.5373113814
 H        -5.4690788588       -1.8359340710      -22.3922832554
 H        -4.2742311221       -0.5361654120      -22.7372535478
 H        -6.7996792802        5.0184397506      -18.3198971247
 H        -8.3062424026        5.2073286704      -19.0661835411
 H        -7.3303249278        6.5802931811      -18.8577770197
 H        -7.1371012161        6.2304568829      -22.4060195599
 H        -8.0473273290        6.7828389985      -21.1749774234
 H        -8.4059660695        5.0624364348      -21.7610092719
 H        -2.6475807288        3.5027828151      -18.3978622609
 H        -3.1915859006        5.3069250517      -17.8737681123
 H        -1.6316471818        4.5422005434      -17.3792886459
 H        -1.4698532238        7.2297261744      -20.2893356435
 H        -0.9226400611        7.0009486418      -18.7230816413
 H        -2.7091232798        7.0047778415      -18.9430820944
 Na       -1.8754432268        1.7101752006      -19.7952050512
 Na       -3.4424518800       -4.1275180936       -7.5367728846
