232

 C         0.8973411520        5.4856216707      -20.2928486366
 C        -0.3671795105        4.6069525588      -19.8543986023
 O        -0.2706885365        3.4345238990      -19.6533636939
 C        -1.7647767098        5.3199689583      -19.5853630005
 C        -2.5517971857        5.0662511179      -20.7938909556
 O        -2.7911999604        3.8903589942      -21.0953493985
 C        -3.2303342246        6.0772653710      -21.7551541899
 C        -4.7561658764        5.7122609486      -22.1761794634
 C        -5.5205534685        5.6356042368      -20.8062156763
 O        -4.9709729822        6.0236216221      -19.7152924579
 C        -7.0107650526        5.1099472038      -20.6618047901
 C        -6.8761327555        3.5184469936      -20.8304859736
 O        -6.7886964904        2.9726309366      -21.9242341389
 C        -7.0404953982        2.5960339009      -19.5624985352
 C        -6.7363909624        1.1090692637      -19.7758202581
 C        -5.2397017853        0.8284902759      -20.0979660130
 O        -4.4289076883        1.6201837709      -19.6278213820
 C        -4.7957510639       -0.4664565065      -20.9214676403
 C        -3.2827163023       -0.7390054404      -20.6828545576
 O        -2.3998751047       -0.1109362821      -21.1948690053
 C        -2.8950541131       -2.1387689418      -20.1601983481
 C        -1.3823505256       -2.0039910544      -19.7410432414
 C        -1.0756774412       -1.2589499843      -18.4650618306
 O        -1.2834777532       -0.0636616632      -18.4019176152
 C        -0.1556595415       -1.9448401274      -17.3435620929
 C        -1.1330324226       -3.2108773923      -16.7211467823
 O        -2.0836828493       -3.4905097643      -17.3658451264
 C        -0.5789832073       -3.6631960133      -15.4195662642
 C        -1.4791384089       -4.7790375803      -14.7114811386
 C        -1.4367958275       -4.7051179964      -13.2151230752
 O        -0.3837526470       -4.3501047590      -12.7130753922
 C        -2.6760489158       -4.9913996294      -12.2561155021
 C        -2.4371192951       -4.9997335375      -10.6939383462
 O        -3.1910726197       -4.3221605931       -9.9273890811
 C        -1.1853855797       -5.8069766395      -10.1739162209
 C        -0.2925858853       -4.9206239012       -9.0423160043
 C        -0.3680408286       -5.5159716761       -7.5983326672
 O        -1.3552306606       -5.3312971610       -6.8805212239
 C         0.6717786814       -6.4975843155       -7.0201112926
 C         1.6427446678       -5.6229208550       -6.0810830274
 O         1.9729249690       -4.5186264286       -6.5514587587
 C         2.0377064821       -6.2115085882       -4.7074356749
 C         1.8789125636       -5.1459833427       -3.6372085736
 C         0.4522269893       -4.7258542728       -3.2239224102
 O        -0.5328405675       -5.3581906889       -3.5182558347
 C         0.3088838342       -3.4505127899       -2.2733904991
 C         0.0692068645       -2.1419400761       -3.1314865587
 O         1.0341022847       -1.4012174151       -3.3795716147
 C        -1.3658632617       -1.8341497538       -3.4903245930
 C        -1.6767392550       -0.8644403926       -4.6738542309
 C        -2.4067661690       -1.6528111444       -5.7716343156
 O        -2.7794132875       -2.7464553272       -5.5313769337
 C        -2.5414936942       -0.8496911532       -7.2381033871
 C        -4.0721863308       -1.0314994740       -7.4237233411
 O        -4.3997072664       -2.1513114972       -7.7381478293
 C        -5.0261239428       -0.0533361487       -6.9454111146
 C        -6.4975669208       -0.5099620375       -6.8110261578
 C        -6.7759958435       -1.0525797489       -5.3468377293
 O        -5.9819085939       -1.0053099071       -4.4366304694
 C        -8.1017486581       -1.8494947997       -5.2415624435
 C        -7.8638782479       -3.2814216149       -5.9137747804
 O        -8.3722273910       -3.5925641312       -6.9786009437
 C        -6.9178990173       -4.2875450800       -5.3309418109
 C        -6.2248997478       -5.0921980838       -6.3847410002
 C        -5.2849754866       -6.2266295749       -6.0162486181
 O        -4.1753734438       -6.2114767795       -6.4843791022
 C        -5.7692282417       -7.2666412671       -5.0810638086
 C        -5.9066332879       -6.9166429203       -3.5024025724
 O        -7.0037814796       -7.0011407831       -3.0603812172
 C        -4.6792335554       -6.5375899196       -2.6556409053
 C        -4.8654728170       -5.6592013723       -1.3523489467
 C        -6.0284376671       -4.6945838043       -1.4112399462
 O        -6.9252011978       -4.6401423174       -2.1975848659
 C        -5.9723161817       -3.4204319232       -0.4130774817
 C        -4.8384283176       -2.4155927433       -0.8476598215
 O        -3.7045556742       -2.6876789129       -0.5085223374
 C        -5.2482354738       -1.0377046043       -1.4589834136
 C        -4.0044093640       -0.0416732468       -1.6110002522
 C        -4.2348767515        1.3171707724       -0.8528211198
 O        -5.1881477615        1.3442816557       -0.1038633320
 C        -3.0581811213        2.2346275814       -0.5798955208
 C        -1.9616202706        2.3203697967       -1.7926782587
 O        -2.1966582480        1.9315736706       -2.9403941259
 C        -0.5727162619        3.0222246084       -1.5316182285
 C        -3.6939888885        3.6732212580       -0.5285100209
 C        -2.4566339468        1.7946244532        0.8292955359
 C        -7.4210194606       -2.9085518955       -0.3083953053
 C        -5.4454229461       -3.8844210258        0.9552761348
 C        -7.1022610443       -7.7065649500       -5.7062962922
 C        -4.6850074992       -8.4468986422       -5.1317861132
 C        -8.6518942656       -1.8706914993       -3.8222421962
 C        -9.1707455975       -1.0825692718       -6.0478983666
 C        -1.9755099210        0.5869526210       -7.0756343094
 C        -1.6301742182       -1.5697222642       -8.3123510557
 C        -0.9502225571       -3.6996463137       -1.3967602279
 C         1.5894229637       -3.3171071849       -1.3569195217
 C        -0.1348159325       -7.6490889637       -6.4348918697
 C         1.5823666788       -7.1343712637       -8.0607884304
 C        -3.7433940233       -3.9436746344      -12.5825653820
 C        -3.1978955777       -6.3810963560      -12.5392285161
 C         1.1035418567       -2.5236265396      -18.0167821792
 C         0.1129112318       -0.9283606867      -16.1779197977
 C        -5.6741011278       -1.7189990518      -20.5068473607
 C        -5.0597770467       -0.0425427806      -22.4413260288
 C        -7.5544123494        5.4209183903      -19.2030228223
 C        -7.9075867223        5.6344580774      -21.9154944173
 C        -2.5342933319        4.5114634506      -18.4030377140
 C        -1.5699095581        6.8156767185      -19.2079308559
 H         1.6048164637        4.7234628347      -20.6638535430
 H         1.3457794134        5.9727160667      -19.4829631061
 H         0.6780240486        6.1975520393      -21.0316556718
 H        -2.6810163675        5.9655949934      -22.6681297573
 H        -3.3694931999        7.1443921894      -21.4633942757
 H        -4.9314567994        4.7820740804      -22.8187264509
 H        -5.2465894108        6.4548345742      -22.7158684534
 H        -8.0024445721        2.7308660254      -19.0591905792
 H        -6.2990398367        3.0446718320      -18.8793486491
 H        -7.3186312110        0.6441648362      -20.6338672770
 H        -7.0470594674        0.5120788608      -18.8776955629
 H        -2.9864292405       -2.9608998718      -20.9801952917
 H        -3.4823467543       -2.4547162375      -19.3115284936
 H        -0.8780920740       -1.4581623478      -20.4972306884
 H        -1.1111824389       -3.0773650611      -19.6209957638
 H        -0.6860085819       -2.8365782463      -14.6965369220
 H         0.4045022706       -4.0490503899      -15.3755880259
 H        -0.9852323793       -5.6558683512      -15.0537893259
 H        -2.5327322786       -4.8316131413      -15.0539604507
 H        -0.5870528036       -6.0356451598      -11.0681125299
 H        -1.5357770960       -6.7933596636       -9.7117669732
 H        -0.6355993482       -3.9350640577       -9.0591201361
 H         0.7271509836       -4.8963175435       -9.4018750838
 H         3.0422435501       -6.5971085188       -4.5894975093
 H         1.4400225055       -7.0081773253       -4.5133868623
 H         2.4240295476       -4.2649529187       -3.9966722307
 H         2.3173940380       -5.4160774504       -2.7056972781
 H        -1.7314277595       -1.4413532803       -2.4556598985
 H        -1.9815211411       -2.7957179628       -3.5202755774
 H        -0.6722064803       -0.4584446647       -4.8458622899
 H        -2.2890391805       -0.0423936079       -4.3296563784
 H        -5.0670923376        0.6779503861       -7.7409192993
 H        -4.7375638659        0.4760163736       -6.0638183319
 H        -6.6238258637       -1.2761180730       -7.6462997293
 H        -7.0674196087        0.3095439431       -7.0161285815
 H        -7.4861910173       -4.8997868308       -4.6921557284
 H        -6.1666302212       -3.7630298559       -4.7393668451
 H        -5.7273418231       -4.4483736392       -7.1085699555
 H        -7.0629921606       -5.4963531671       -6.9276917119
 H        -3.9995786199       -6.1065911808       -3.3739435761
 H        -4.3929184096       -7.5445936452       -2.3735454377
 H        -3.9369093296       -5.1295835248       -1.3166492262
 H        -4.8380755664       -6.1788541524       -0.4295156415
 H        -6.0355511459       -0.5659510560       -0.8594994448
 H        -5.7932461765       -1.2044274545       -2.3993052501
 H        -3.8001386337        0.2409431467       -2.5935142167
 H        -3.1261065415       -0.5396355585       -1.1956416648
 H        -0.2786716671        2.3778230619       -0.7282115171
 H        -0.6943750299        4.0600379551       -1.2040935367
 H         0.0609497770        2.8538818007       -2.4130745321
 H        -2.9286926393        4.3760638064       -0.4164396761
 H        -4.2091196862        3.7948961326        0.4353623543
 H        -4.3772102188        3.9518699434       -1.3523770100
 H        -3.2300932509        1.7673886650        1.5483105454
 H        -1.6374676399        2.4674187865        1.1290200292
 H        -2.0045689995        0.7849106367        0.8244371694
 H        -8.0419890583       -3.7998106852       -0.1121627037
 H        -7.8174457920       -2.4513980050       -1.3011876367
 H        -7.5091712140       -2.0921426845        0.3950183356
 H        -5.9430605036       -4.8323514447        1.3681209859
 H        -5.7124409148       -3.1401603600        1.7202794287
 H        -4.3634084671       -4.1262801258        0.9376330695
 H        -7.7588617952       -6.8864845065       -5.9472767183
 H        -7.5921837919       -8.4055873896       -4.9680847540
 H        -6.8176758124       -8.1763268085       -6.5811178477
 H        -4.5724326758       -8.9808457440       -6.0898243906
 H        -4.9417314067       -9.2034188897       -4.3769452215
 H        -3.7533096638       -7.9923616096       -4.8434133517
 H        -9.7399020450       -2.1951470479       -3.6970787867
 H        -8.5953160660       -0.7890937600       -3.4833322003
 H        -7.8910152665       -2.4383509612       -3.2888634784
 H        -9.0094802795       -1.1533618941       -7.1794198423
 H        -9.4047253971       -0.0936631496       -5.6936357289
 H       -10.1513296941       -1.6345936478       -5.9684459266
 H        -2.2042450253        0.9194656931       -8.0666158108
 H        -0.9259109561        0.5786965125       -6.8999657548
 H        -2.5482017533        1.0590785579       -6.2992136982
 H        -0.6194937413       -1.6591090493       -8.0404562185
 H        -1.9042141561       -1.2127362114       -9.3607713960
 H        -1.9699195251       -2.6034487174       -8.4287237360
 H        -0.7479663136       -4.2622287371       -0.5136406288
 H        -1.8136419747       -4.1543409628       -1.8190129340
 H        -1.3171441657       -2.7480973554       -0.9559681043
 H         2.5354278943       -3.2267788146       -2.0163675910
 H         1.7797438526       -4.1461832730       -0.7544083647
 H         1.3975487479       -2.4315791868       -0.7869249238
 H        -0.7028759219       -7.2989845318       -5.5127331721
 H         0.5239093765       -8.5442371750       -6.1626351699
 H        -0.8764612777       -7.8953144376       -7.1689207853
 H         2.1268720746       -7.8713401967       -7.5920147755
 H         2.4005602113       -6.4292998403       -8.4120776470
 H         1.0973733201       -7.3938509535       -9.0430742838
 H        -4.6887975273       -4.0276668959      -12.0388405367
 H        -3.8671521816       -3.8890551146      -13.6542243384
 H        -3.2752897347       -3.0050321780      -12.3606795004
 H        -4.1431384294       -6.6553755942      -12.0408107931
 H        -2.4568194895       -7.0960224406      -12.2623099696
 H        -3.3656303908       -6.4101652806      -13.5685950648
 H         1.9343033980       -1.7367745936      -18.2470009270
 H         1.0268286943       -3.0362021313      -18.9797314975
 H         1.3842894742       -3.2819607474      -17.3502080059
 H         0.9917967625       -1.2874023747      -15.5763110162
 H        -0.6977010817       -0.8394760908      -15.4513244681
 H         0.4150967380        0.0585204211      -16.6557365776
 H        -5.3749071721       -2.5885526070      -21.1727703059
 H        -6.7092875993       -1.4018502136      -20.8042463090
 H        -5.7660686607       -1.8196493774      -19.4346579682
 H        -5.6655307508       -0.8541458586      -22.8901172606
 H        -4.1653546464        0.0611378355      -23.0279517472
 H        -5.4229810599        0.9162153609      -22.6155929054
 H        -6.8147095774        5.1162931175      -18.5647539908
 H        -8.4719436016        4.9120450896      -18.9563461704
 H        -7.7577331241        6.4600406815      -18.9871040515
 H        -8.2366030039        4.8033134697      -22.4457411917
 H        -7.4170820336        6.2777938276      -22.6438640540
 H        -8.7966230541        6.1596093710      -21.5146772913
 H        -2.4323911935        3.4258547453      -18.4989285913
 H        -3.5974674830        4.8415594730      -18.5827971968
 H        -2.3341523868        4.8125138072      -17.3990220003
 H        -1.6208902010        7.4190145843      -20.1499000222
 H        -0.5959160039        7.1452482422      -18.7953544858
 H        -2.3969624705        7.1494012688      -18.5097123766
 Na       -2.1891424834        1.8789238195      -19.8058634547
 Na       -3.2955560134       -4.2617082130       -7.5202251166
