232

 C         0.7660987243        5.4817312978      -20.3523754341
 C        -0.4154211264        4.6003279332      -19.7440871809
 O        -0.2369141627        3.4101485992      -19.6732178388
 C        -1.7726224021        5.3970804807      -19.5576225759
 C        -2.6219687844        5.0075734698      -20.8992087761
 O        -2.6693140404        3.8511710503      -21.2641284912
 C        -3.3503064855        6.1248096501      -21.7697576250
 C        -4.7782917757        5.7396929451      -22.0268170619
 C        -5.6444268463        5.5875182848      -20.7927438471
 O        -5.0877467214        5.9095322598      -19.7423075316
 C        -7.0957472364        4.9686301690      -20.7722273430
 C        -7.0457891829        3.4757798993      -20.8734194476
 O        -6.8902900750        2.9362921806      -21.9692720650
 C        -7.1837664774        2.5477162921      -19.5628717589
 C        -6.7112025801        1.0860983810      -19.7076565622
 C        -5.2197059215        0.8496039691      -20.0795943198
 O        -4.3934441481        1.6252548751      -19.6554836125
 C        -4.9067420731       -0.3737587486      -21.0300281849
 C        -3.3635120600       -0.7567243543      -20.8885204715
 O        -2.5730389817        0.0634420078      -21.3634977100
 C        -2.9719004895       -2.0091936719      -20.0623187251
 C        -1.4638534896       -2.0423139519      -19.7465572605
 C        -1.0218797080       -1.2233127182      -18.5554091056
 O        -1.3973783273       -0.1037592211      -18.2520345893
 C        -0.1526930688       -2.0249603848      -17.4949671615
 C        -1.0458633331       -3.1677847456      -16.8359069169
 O        -2.0868953586       -3.5505464571      -17.2840718497
 C        -0.6353313420       -3.6041887951      -15.4316227104
 C        -1.4566569780       -4.7817811829      -14.7733878861
 C        -1.3775511867       -4.6975024432      -13.1521907626
 O        -0.3333436935       -4.4340628540      -12.5788863487
 C        -2.6702620786       -4.9738742166      -12.3182443158
 C        -2.3490629569       -4.8165814146      -10.7107934291
 O        -3.1780413946       -4.2888911378      -10.0250068761
 C        -1.1979245606       -5.6152128835      -10.0468231437
 C        -0.2352453063       -5.0218553166       -9.0541891724
 C        -0.3876046627       -5.6997276021       -7.7213789542
 O        -1.3630311665       -5.3564457264       -7.0210485201
 C         0.6740187588       -6.6194395722       -7.0222239526
 C         1.4987654389       -5.6835384219       -6.0388054282
 O         1.9619660682       -4.6486695472       -6.3967797519
 C         1.9398827289       -6.1613360739       -4.6782582190
 C         1.9889692217       -5.0854686247       -3.5587604034
 C         0.5698014460       -4.7343594231       -3.1346754516
 O        -0.3820106130       -5.4116903252       -3.4572130246
 C         0.3234941446       -3.3860300726       -2.2013053416
 C         0.1503063714       -2.1560570489       -3.0987187643
 O         1.0486109560       -1.4886419527       -3.4818673195
 C        -1.3471975743       -1.7088889813       -3.3589279727
 C        -1.5117993501       -0.9357152158       -4.7117229689
 C        -2.2922158165       -1.6634813565       -5.7811395569
 O        -2.7550084241       -2.7795867666       -5.6557188504
 C        -2.5110149990       -0.9486875277       -7.1477569010
 C        -4.0622406253       -1.1871031056       -7.3813967759
 O        -4.6204767946       -2.2652646246       -7.6397999615
 C        -4.9277223781        0.0916719222       -7.0043862121
 C        -6.4181835765       -0.3810698700       -6.7016013151
 C        -6.6674159341       -1.1199114961       -5.4621334505
 O        -5.8717741845       -1.1406882382       -4.5015230427
 C        -8.0999309596       -1.8082031382       -5.2532313560
 C        -7.7954769705       -3.2557019851       -5.8404190605
 O        -8.2973378804       -3.5287817184       -6.9428349697
 C        -6.7557473019       -4.2512984438       -5.1896159940
 C        -6.2978026760       -5.0585332907       -6.4600621840
 C        -5.2731003889       -6.1061953715       -6.0011018977
 O        -4.1452838280       -6.0631615327       -6.4575146061
 C        -5.7779017148       -7.3103451875       -5.0789680468
 C        -6.0362401395       -6.8692151663       -3.5467566864
 O        -7.1401047268       -6.9070658806       -3.0695274901
 C        -4.6658037930       -6.4949498937       -2.6720738926
 C        -4.9378262281       -5.7373290864       -1.3816030263
 C        -5.9620362355       -4.6254784381       -1.4678269865
 O        -6.9713712048       -4.6833832765       -2.1446353298
 C        -5.9313202741       -3.4624632262       -0.3484428419
 C        -4.7797621091       -2.4373648094       -0.7517253709
 O        -3.6583881937       -2.7464728698       -0.5442000302
 C        -5.2273519080       -1.1386106469       -1.2891045844
 C        -4.0290824932       -0.1805179907       -1.6126613031
 C        -4.2290194629        1.1462273231       -0.7396886390
 O        -5.2351488413        1.3477033694       -0.1262557002
 C        -2.9960628491        2.2918993372       -0.5722988163
 C        -1.9597104732        2.3597020166       -1.7045319547
 O        -2.2460298818        2.0303064850       -2.8238276928
 C        -0.5945582262        3.0853558291       -1.4507722500
 C        -3.7030335914        3.6732957307       -0.5892971263
 C        -2.4650674583        1.8424224331        0.7204735927
 C        -7.2975904464       -2.8306977714       -0.3325471800
 C        -5.4967867346       -4.1170328153        0.9880945183
 C        -7.0892688003       -7.9263477120       -5.6786706853
 C        -4.7097250799       -8.4440218429       -5.0963891365
 C        -8.4840546693       -1.8944535584       -3.7108527742
 C        -9.2093021012       -1.0838132880       -6.0837493138
 C        -2.1813177711        0.5875716954       -7.1049107327
 C        -1.5903970657       -1.6495022885       -8.1708186446
 C        -0.8814928346       -3.6619637640       -1.2783123202
 C         1.5442133777       -3.2050315437       -1.3287019184
 C        -0.0640717165       -7.8233609209       -6.2483648845
 C         1.7547842559       -7.1420314253       -8.1836456828
 C        -3.7411012932       -3.8941154394      -12.7213152623
 C        -3.2681149262       -6.4442361518      -12.5580850014
 C         1.2682290482       -2.4452948231      -18.0160034517
 C         0.1789689380       -0.9591142213      -16.3991789522
 C        -5.6952075471       -1.6475444156      -20.7284972484
 C        -5.0119710645        0.0636453169      -22.4975679635
 C        -7.6263060291        5.4518579186      -19.4551749700
 C        -7.9901537463        5.6253719149      -21.8746994861
 C        -2.4671819620        4.7127414817      -18.3774149387
 C        -1.4304683465        6.8617095166      -19.2037719873
 H         1.3831016423        4.7254323357      -20.8242175261
 H         1.3987617491        5.8839559575      -19.5313598192
 H         0.4909659489        6.2627124795      -21.0176082896
 H        -2.8891768117        6.2122559748      -22.7689932445
 H        -3.5095458358        7.1521074482      -21.2315279379
 H        -4.7573986367        4.7703840779      -22.4188095044
 H        -5.3681730134        6.2574653778      -22.8005724185
 H        -8.2718444884        2.5337965937      -19.3194705225
 H        -6.7649771207        3.0571074587      -18.7237248168
 H        -7.3504181847        0.4776979440      -20.3357722451
 H        -6.7840918820        0.6021368628      -18.7068422203
 H        -3.2756275460       -2.9261495275      -20.6339807587
 H        -3.5182635590       -2.0373900546      -19.0494297553
 H        -0.9166720361       -1.6078193036      -20.5785853631
 H        -1.2765584044       -3.0405033179      -19.5994553876
 H        -0.7650670916       -2.8460786621      -14.6758284895
 H         0.3972253253       -4.0057027295      -15.3832418879
 H        -1.0397493010       -5.6935507306      -15.1781839606
 H        -2.5051264359       -4.7610317175      -15.0295226606
 H        -0.6178242160       -6.0123470155      -10.8707555115
 H        -1.6772154080       -6.5013774685       -9.6037955787
 H        -0.5696598184       -3.9347743588       -8.9021705839
 H         0.7930812310       -5.0405595071       -9.4932426583
 H         2.9615404803       -6.6976955542       -4.7079160850
 H         1.2475033578       -6.9689342205       -4.2969797292
 H         2.5322130446       -4.2262034135       -3.8933629449
 H         2.4137910876       -5.4321304725       -2.6128189876
 H        -1.7702196198       -1.2847343915       -2.4987186143
 H        -1.9254515154       -2.6202821195       -3.4654473271
 H        -0.4507212635       -0.7470035324       -4.9832523191
 H        -1.9771051822        0.0460657992       -4.5020976720
 H        -4.9660778551        1.0195205748       -7.6338879323
 H        -4.5600179414        0.3977631933       -5.9099496031
 H        -6.6561324650       -1.0542242867       -7.4939993215
 H        -7.0508813432        0.4997358686       -6.6986785474
 H        -7.1962311357       -4.8349619580       -4.3669016529
 H        -5.8787867568       -3.7136366768       -4.8421140725
 H        -5.9529537139       -4.4176320054       -7.2265387871
 H        -7.1528479996       -5.5165118897       -6.8226806385
 H        -4.0795376913       -6.0049542241       -3.4408055081
 H        -4.3108447484       -7.4822918941       -2.3831147878
 H        -3.9551231624       -5.4823742708       -0.9548899335
 H        -5.3769927661       -6.4427546167       -0.7173944098
 H        -5.9235112160       -0.7312164987       -0.5150599667
 H        -5.9392930491       -1.2600766373       -2.1157364703
 H        -4.1212903189        0.1924607717       -2.6635896231
 H        -3.1207335300       -0.6946880553       -1.4713951162
 H        -0.1769242307        2.8666179761       -0.4427894851
 H        -0.8737053155        4.1041250413       -1.5854903665
 H         0.0269469410        2.7279429497       -2.2534476792
 H        -2.9414288450        4.4938512262       -0.4263695833
 H        -4.4019155909        3.8464378133        0.1871088470
 H        -4.1054159781        3.8518060221       -1.5709658063
 H        -3.2576647712        2.0119498034        1.4334298662
 H        -1.5363768553        2.2586481188        1.0585057794
 H        -2.2170889740        0.7504795237        0.7197884235
 H        -8.0440918350       -3.5582591438       -0.1846999461
 H        -7.4835585045       -2.4749384382       -1.3268044786
 H        -7.3802558784       -1.8858617989        0.3162679036
 H        -6.1940974132       -4.8837529146        1.3602761148
 H        -5.4822578739       -3.3709129941        1.8328088133
 H        -4.5330216938       -4.6560694276        0.8866160152
 H        -7.8013302278       -7.1001556172       -5.8783562307
 H        -7.4736145256       -8.5320478664       -4.8667882454
 H        -6.8935185835       -8.4914409316       -6.5731104509
 H        -4.8206336666       -9.0758148721       -5.9769532958
 H        -4.9169565672       -9.0575163296       -4.2715918095
 H        -3.6614984456       -8.1064092073       -4.9765597190
 H        -9.6286199550       -1.9733455093       -3.7081296226
 H        -8.1946748190       -0.9956246310       -3.0859711648
 H        -8.0194429597       -2.8518301014       -3.3547202708
 H        -9.0004051089       -1.1053234368       -7.1768611668
 H        -9.3261434268       -0.0230306758       -5.7095841058
 H       -10.1774702973       -1.5249850046       -6.0690969684
 H        -2.1768913848        0.8943214134       -8.1465786851
 H        -1.2257922089        0.8628467561       -6.5147778689
 H        -3.0407654796        0.9252333980       -6.5758141167
 H        -0.6181063987       -1.9189955398       -7.7103015363
 H        -1.5651268462       -1.1266073503       -9.1708594565
 H        -1.9908275097       -2.6285269536       -8.4937924008
 H        -0.6928540466       -4.2751561971       -0.4194382303
 H        -1.6731741099       -4.0862276411       -1.7573771400
 H        -1.2394213483       -2.7716333879       -0.8302098806
 H         2.4665922945       -2.8365075459       -1.8402475251
 H         1.8131551151       -4.1314673041       -0.8901741210
 H         1.1550600207       -2.5003338009       -0.5670718447
 H        -0.2871176065       -7.5148467947       -5.2084692586
 H         0.4775580203       -8.8094341122       -6.2486356709
 H        -1.0472977724       -7.9172893950       -6.7533316260
 H         1.9212319988       -8.2646910643       -7.9383954804
 H         2.7548153381       -6.7955244724       -8.1920745921
 H         1.3323473897       -6.9900001149       -9.2210351630
 H        -4.7793460273       -4.1470306912      -12.5640529212
 H        -3.5079104251       -3.7180349908      -13.7533176418
 H        -3.4821565930       -2.8443405085      -12.2961847522
 H        -4.2971028842       -6.4881141722      -12.1471410359
 H        -2.6552776452       -7.1782114262      -11.9994611184
 H        -3.2842464131       -6.7351938502      -13.6588730964
 H         1.8279270446       -1.5479779739      -17.9626964914
 H         1.4105938987       -2.7354427450      -19.1138678461
 H         1.7355545242       -3.2349239757      -17.3897691634
 H         0.9258357324       -1.4558431377      -15.7265131839
 H        -0.6240383076       -0.5404803992      -15.7561088154
 H         0.7622573271       -0.1987162845      -16.9387170505
 H        -5.5105556774       -2.2944931683      -21.5938676141
 H        -6.8075898116       -1.2812315019      -20.8351473024
 H        -5.6182327832       -1.9987867956      -19.7210293896
 H        -5.0996776197       -0.8491462549      -23.1246692833
 H        -4.1785817075        0.6681121286      -22.8006682306
 H        -5.7728746229        0.9195304223      -22.8325687489
 H        -7.0716156045        5.1827335567      -18.6046991704
 H        -8.6278544382        5.1952956657      -19.4179223234
 H        -7.7217177107        6.5237307397      -19.5070396841
 H        -8.4293927577        4.7444354476      -22.4381933181
 H        -7.4083670392        6.2078561043      -22.5915917698
 H        -8.7942221551        6.2557824071      -21.5231670224
 H        -1.9504335138        3.7474520704      -18.1698327117
 H        -3.5590492765        4.5280888220      -18.7203809097
 H        -2.6238085384        5.3242586341      -17.4376897287
 H        -1.5713170360        7.4460931994      -20.1476057844
 H        -0.4631439426        7.1382876086      -18.8144202601
 H        -2.1840274059        7.2471992932      -18.5129884918
 Na       -2.1576350010        1.9949296558      -19.8997012013
 Na       -3.3377677841       -4.1672980135       -7.3346783097
