232

 C         0.8897780807        5.3100345901      -20.4774002463
 C        -0.3549798799        4.6321479340      -19.9443060374
 O        -0.3619059728        3.4647788891      -19.6215622106
 C        -1.6210644718        5.4312789292      -19.7835947194
 C        -2.6962712807        4.9849158189      -20.9278455228
 O        -2.7284180919        3.7877506844      -21.2299760321
 C        -3.5474032656        6.0523800902      -21.5620834131
 C        -4.9835360921        5.4643841051      -21.8448286779
 C        -5.9525529696        5.2938916952      -20.6204581471
 O        -5.5123903306        5.3162965915      -19.5230585132
 C        -7.4995401468        4.8663878838      -20.8770302375
 C        -7.3153147014        3.3605255706      -20.9342957398
 O        -7.1828131341        2.7767205621      -21.9653474787
 C        -7.1397491792        2.5902358414      -19.6380266910
 C        -6.8934671464        1.1696490960      -19.9065468368
 C        -5.3581194963        0.9844680233      -20.2908365200
 O        -4.5578920933        1.6870703072      -19.7203333127
 C        -4.9435793852       -0.0470588683      -21.3475615702
 C        -3.5041446883       -0.4304628831      -21.0576638963
 O        -2.5925953598        0.1898004432      -21.6311007834
 C        -3.2105739194       -1.5978961817      -20.2083456358
 C        -1.8438226797       -1.8696140593      -19.6240215889
 C        -1.2592325531       -0.9672496896      -18.4684106657
 O        -1.3419605022        0.2733801133      -18.4355016942
 C        -0.2618864167       -1.7944372252      -17.5582060329
 C        -0.9994063060       -2.9689781382      -16.7178507090
 O        -1.8120347585       -3.8175573803      -17.1786658300
 C        -0.5512208821       -3.1992133870      -15.2963323694
 C        -1.3914380286       -4.3915030556      -14.6022061624
 C        -1.1552156196       -4.5184246851      -13.0499686905
 O        -0.0701935407       -4.6019489802      -12.5263474062
 C        -2.4878771620       -4.8176147711      -12.2324531470
 C        -2.1881923373       -4.9195070044      -10.7155049548
 O        -2.7026618880       -4.0937737218      -10.0490325546
 C        -1.2916092244       -5.9893150609      -10.1063595966
 C        -0.2210466403       -5.3528365851       -9.1618078714
 C        -0.3976516878       -5.9201282512       -7.6807081489
 O        -1.4918279749       -5.7897244323       -7.1063565002
 C         0.7395957008       -6.7600754673       -7.0324029431
 C         1.4109472093       -5.6506244896       -6.0734823356
 O         1.6566210096       -4.6245698878       -6.6098973118
 C         1.8739208800       -6.0748352301       -4.6884999717
 C         2.0846092758       -4.9753726723       -3.6283563742
 C         0.7228213638       -4.7512245371       -2.8630754113
 O        -0.2699153898       -5.4211679130       -3.0913740017
 C         0.6701849271       -3.4768293010       -1.9585440033
 C         0.3999149408       -2.3397968734       -3.1625313464
 O         1.2952216862       -2.0896547818       -3.8929103207
 C        -1.1008748310       -1.7995229139       -3.2439554822
 C        -1.4171316340       -1.0077274899       -4.5372840490
 C        -2.0878036026       -1.6852576478       -5.6391207526
 O        -2.2687987366       -2.9014496026       -5.6860227200
 C        -2.4758349910       -0.8709374589       -6.9784645562
 C        -4.0282718640       -0.9553732220       -7.0517398055
 O        -4.5668978845       -2.0583289620       -7.3453852356
 C        -4.9228134813        0.2899342623       -7.0636590786
 C        -6.4637869627       -0.0727773835       -6.7195421672
 C        -6.5673186826       -1.0127578106       -5.5311601966
 O        -5.6050279719       -1.3009558513       -4.8440110674
 C        -7.9573976170       -1.7544190289       -5.1997524137
 C        -7.8701342321       -3.1716895632       -6.0176156968
 O        -8.5328756538       -3.2883641970       -7.0028634230
 C        -6.7859252035       -4.1865941368       -5.5212425615
 C        -6.6107228703       -5.4682113402       -6.4304420483
 C        -5.4398439733       -6.2548626547       -5.9044596970
 O        -4.3037597069       -5.8426615813       -6.1038579184
 C        -5.7103228167       -7.5431388015       -5.1147587327
 C        -6.1263225361       -6.9727661803       -3.6116725177
 O        -7.1739103629       -7.2572180574       -3.0970751395
 C        -4.9655269629       -6.0959378311       -2.9342909672
 C        -5.3693871458       -5.7708017897       -1.4934645090
 C        -6.1159505297       -4.4791590896       -1.3248232320
 O        -6.6512387065       -3.9262050626       -2.3046552536
 C        -5.9288740235       -3.5733676991       -0.0107608669
 C        -4.7784803153       -2.6329015678       -0.5349566849
 O        -3.6808833139       -3.1480628520       -0.5490128463
 C        -5.0201681978       -1.2611770715       -0.9437271219
 C        -3.8349836321       -0.2290093229       -0.9847080310
 C        -4.3151996732        1.1609162268       -0.7066890743
 O        -5.4492462682        1.4049824097       -0.3552509705
 C        -3.1974578832        2.2875924839       -0.4646194746
 C        -2.2023941708        2.2419612322       -1.6274530189
 O        -2.3737676552        1.5127228466       -2.5767452468
 C        -0.8200096392        3.1081057962       -1.6188523949
 C        -3.8489360204        3.7608360986       -0.3623749679
 C        -2.3894528058        1.9380024860        0.8315523173
 C        -7.2697238864       -2.8592183051        0.2744820319
 C        -5.2927957260       -4.3872529558        1.1076743959
 C        -6.9411351127       -8.3401833463       -5.7575924400
 C        -4.5680795720       -8.5433637660       -5.0583088918
 C        -8.0495278413       -1.7920002644       -3.6495703834
 C        -9.1300628756       -0.9197364335       -5.6749993893
 C        -1.9002927430        0.6260886888       -6.9126372482
 C        -1.9730279416       -1.5269433196       -8.2539910590
 C        -0.4219847959       -3.5708651861       -0.8802184452
 C         2.0146531254       -3.1271783218       -1.2500042963
 C         0.0404990624       -7.9775570557       -6.2795876654
 C         1.8032250395       -7.2070395692       -7.9671187890
 C        -3.5416816859       -3.7833708756      -12.4604292507
 C        -3.0119253609       -6.2227801690      -12.7203817938
 C         0.8248322613       -2.6079572801      -18.3423964932
 C         0.4845165177       -0.7326735105      -16.7199816682
 C        -5.8875621100       -1.2891323077      -21.3723468341
 C        -4.9663050516        0.6849422846      -22.7214002754
 C        -8.4321378490        5.3887207568      -19.7909404237
 C        -8.0509177479        5.3586975690      -22.3009849198
 C        -2.4432381722        4.9807979032      -18.5072670055
 C        -1.3909187209        6.9268618039      -19.6287186423
 H         1.6792127999        4.6574899881      -20.4364465885
 H         1.1747538065        6.1877797579      -19.8981000055
 H         0.6835756985        5.5279751699      -21.5146449525
 H        -3.1869451638        6.3898463784      -22.5751504683
 H        -3.7024166680        6.9419203296      -20.9071805894
 H        -4.8166651000        4.5376076367      -22.2964731048
 H        -5.5098222840        5.9716343739      -22.7213253779
 H        -8.1327411861        2.6849640985      -19.1393814963
 H        -6.5282866553        3.0843107492      -18.9054719525
 H        -7.5401992036        0.7893077357      -20.7092216381
 H        -7.0860751945        0.6204516700      -18.9375853719
 H        -3.4611593759       -2.4513157410      -20.8731781186
 H        -3.9753032681       -1.7100995372      -19.3593802050
 H        -1.2760140085       -1.5735212876      -20.5134811087
 H        -1.7981507973       -2.8715839007      -19.3633172473
 H        -0.5594078599       -2.2551532916      -14.7599116168
 H         0.5254123142       -3.5301962336      -15.3706762311
 H        -1.1095547864       -5.3319261048      -15.0866225782
 H        -2.4345462430       -4.2819691813      -14.8548032472
 H        -0.8746551040       -6.7171065217      -10.8212564948
 H        -1.8632243598       -6.6880775211       -9.4565915582
 H        -0.5198804341       -4.3182340567       -9.0686740247
 H         0.7278021655       -5.5322045945       -9.6065588216
 H         2.7629705903       -6.6544344053       -4.8222193749
 H         1.1462894236       -6.7225862722       -4.1228800977
 H         2.2447659850       -4.0131618087       -4.0458595573
 H         2.8891939289       -5.2685084566       -2.9470219996
 H        -1.2418863977       -1.1178235622       -2.3621718885
 H        -1.8804005093       -2.6218904335       -3.1064151538
 H        -0.5302169266       -0.4755431790       -4.9340201018
 H        -2.0889370202       -0.2407854495       -4.1134452916
 H        -4.7318173490        0.9252344785       -7.9241860746
 H        -4.5946151025        0.9555444995       -6.2040930215
 H        -6.8365567147       -0.6581240103       -7.4643529710
 H        -7.0477021556        0.8168825283       -6.5019275967
 H        -7.1389730470       -4.6638659164       -4.5950670174
 H        -5.8558456934       -3.7043306952       -5.3286357252
 H        -6.3359428398       -5.2559231672       -7.4646963516
 H        -7.5573056184       -5.9734582655       -6.4109106638
 H        -4.9291032664       -5.1608653988       -3.5166140473
 H        -4.1376983952       -6.7842029259       -3.0490273722
 H        -4.4815011568       -5.6954700993       -0.8954736962
 H        -6.0204367337       -6.4897438921       -1.1271623669
 H        -5.9105934716       -0.8509462761       -0.4267004031
 H        -5.4230645402       -1.4316853156       -1.9567375357
 H        -3.3629152268       -0.3727999062       -1.9621112176
 H        -3.1442426844       -0.4835927209       -0.2480085828
 H        -0.7448492477        3.6467062152       -0.6536484571
 H        -0.9648351685        3.7860043449       -2.4331506990
 H         0.0316398088        2.4522123686       -1.6453917104
 H        -3.0881982126        4.5941997347       -0.2922267829
 H        -4.5427613392        3.8840811222        0.4156324066
 H        -4.3001573077        3.9787220282       -1.2913757411
 H        -3.1694536882        1.6674973082        1.5247949781
 H        -1.8626113887        2.6817173004        1.3651712939
 H        -1.6104251935        1.2033636121        0.6848225166
 H        -8.0786213327       -3.5268666585        0.6356892290
 H        -7.6850237231       -2.4363784487       -0.6263145473
 H        -7.2124982111       -2.0746819705        1.1201579264
 H        -5.7346703742       -5.3635200234        1.2836688073
 H        -5.3011975545       -3.8247369237        2.0830572801
 H        -4.2176970432       -4.5456990840        0.8761743046
 H        -7.8692517988       -7.8352848316       -5.4738428723
 H        -6.9575892078       -9.3397568374       -5.4256668788
 H        -6.8109006813       -8.4179049334       -6.8583902532
 H        -4.3770980790       -8.7667419017       -6.1112951827
 H        -4.8389997308       -9.4282847754       -4.5282838593
 H        -3.6274983052       -8.2621127746       -4.5370355128
 H        -9.1161676567       -1.7764443079       -3.4652299726
 H        -7.4321430377       -0.9512521887       -3.3257176517
 H        -7.7615534346       -2.7809460100       -3.2098153586
 H        -9.0400616412       -0.7026207146       -6.7523326248
 H        -9.0668807660        0.1211133822       -5.1882724057
 H       -10.0731197349       -1.4460106725       -5.5432725863
 H        -2.1605053092        1.0999445583       -7.8380420035
 H        -0.8053675570        0.5256842751       -6.8379163911
 H        -2.2097358057        1.1498647243       -6.0391397338
 H        -0.9361942012       -1.9528427294       -8.1959851884
 H        -1.7809567323       -0.7189543526       -8.9493061146
 H        -2.6106971800       -2.2992536353       -8.6831025524
 H        -0.2407789388       -4.3740865853       -0.1237683736
 H        -1.3385809178       -3.9058477111       -1.3790087894
 H        -0.6425387023       -2.7360965039       -0.2645236802
 H         2.7881142073       -3.0480119503       -1.9402501995
 H         2.1686853004       -3.9277587349       -0.4794525732
 H         1.9489656052       -2.1444443657       -0.7288154632
 H        -1.0084009116       -7.6971690448       -6.1862234290
 H         0.5014993783       -8.0794809596       -5.3009961162
 H         0.2910800575       -8.9308345941       -6.7997947533
 H         2.3673064839       -8.0745185934       -7.4496266036
 H         2.4296509398       -6.3555626508       -8.0150309065
 H         1.4757569011       -7.5694649530       -8.9547976176
 H        -4.3012813832       -3.9251996481      -11.7422788257
 H        -3.9625003364       -3.9148763080      -13.4270107489
 H        -3.1303146903       -2.7510776383      -12.4070734019
 H        -3.5769007649       -6.4905130879      -11.9124322151
 H        -2.2424786675       -6.9131158929      -12.9004295888
 H        -3.5998860342       -6.2205166453      -13.6276281199
 H         1.1311139823       -2.1842122098      -19.2219427053
 H         0.3104548031       -3.5607653356      -18.5807152418
 H         1.8059486883       -2.6351137677      -17.8267441862
 H         1.3117763971       -1.1089278409      -16.0980776891
 H        -0.3232984578       -0.2191161839      -16.1325172936
 H         0.8297065099        0.0695389156      -17.3609348821
 H        -5.4830555083       -2.0943766352      -22.0335697604
 H        -6.9386596110       -1.0547456809      -21.6696729047
 H        -5.8911194683       -1.7336403212      -20.3178040034
 H        -3.9751545653        0.9527742713      -22.9924953017
 H        -5.5929903850        1.5938567873      -22.7533853947
 H        -5.3778027539        0.1763594980      -23.6071549294
 H        -7.9287696806        5.4755688485      -18.8077382383
 H        -9.3534326393        4.8981808454      -19.7464466053
 H        -8.6061480265        6.4044544203      -20.0433768934
 H        -8.9921602888        4.8243302239      -22.5150852799
 H        -7.3154639071        5.1340171097      -23.0200499843
 H        -8.1879979311        6.3733706165      -22.4171531446
 H        -2.2370092370        5.6891797065      -17.7241823608
 H        -2.0681931205        4.0549352398      -18.1148113326
 H        -3.5541866138        4.9993042919      -18.6109713780
 H        -1.2006531330        7.6452843280      -20.4365247810
 H        -0.7313393431        6.9930601417      -18.7583700563
 H        -2.2738688222        7.4283722414      -19.2502463677
 Na       -2.0966738252        1.7691346128      -20.0176177120
 Na       -3.2091869219       -4.3146129983       -7.3653295767
