232

 C         0.8646939446        5.0007230687      -20.5078969786
 C        -0.4270638534        4.3989186542      -20.0934718593
 O        -0.5221184222        3.1657801202      -19.9681166199
 C        -1.7217698792        5.3216323377      -19.7987234301
 C        -2.9423622506        4.9385975811      -20.7641431296
 O        -3.1210663979        3.7862448451      -20.9680024041
 C        -3.8739534060        6.0871471597      -21.3462935602
 C        -5.2073621824        5.5784597455      -21.9386000065
 C        -6.2751686801        5.2467023224      -20.8708402971
 O        -5.9486276940        5.1973385714      -19.6690802246
 C        -7.7030133929        4.7770106458      -21.2336198531
 C        -7.6844717573        3.1935355366      -21.1889798701
 O        -7.8770040421        2.5340324412      -22.2230856240
 C        -7.4310379186        2.4379712357      -19.8888445428
 C        -7.0185727453        0.9868640166      -20.1255789781
 C        -5.4562823815        1.0374534349      -20.3299548863
 O        -4.8513968416        1.8005755007      -19.5957769280
 C        -4.8171346181        0.2150892092      -21.5887373621
 C        -3.4245432306       -0.3772709090      -21.1288928287
 O        -2.3532365096        0.0738831398      -21.5027953945
 C        -3.5546634324       -1.3853676157      -19.8772862312
 C        -2.1557494159       -1.9594423993      -19.4862544618
 C        -1.3325587666       -1.0744643365      -18.6050809010
 O        -1.6727409649        0.0616798882      -18.3859045728
 C        -0.2038545444       -1.6060688880      -17.6491192783
 C        -1.0307993006       -2.6051488640      -16.6805120543
 O        -1.7262776906       -3.4077861682      -17.2197251923
 C        -0.7327460418       -2.6280622233      -15.2239968105
 C        -1.4502711016       -3.7938291738      -14.5707644908
 C        -1.2182291088       -4.1400384655      -13.0714950057
 O        -0.1499473465       -3.9127937911      -12.5435163580
 C        -2.4459717776       -4.6721911740      -12.2003820522
 C        -2.1059160033       -4.8696764659      -10.6891589290
 O        -2.8593702358       -4.3954671379       -9.8154340751
 C        -0.8676855466       -5.8122661344      -10.3117570415
 C         0.0237342761       -5.4810576888       -9.0427102411
 C        -0.3727416306       -6.2869585015       -7.8466798627
 O        -1.5361302875       -6.3153619531       -7.5158528712
 C         0.7147459915       -7.0976244133       -6.9687381342
 C         1.1752258313       -6.0347969352       -5.9163776985
 O         1.1278942616       -4.8597796796       -6.3446666849
 C         1.9180244741       -6.3398336759       -4.6519743138
 C         2.2986799164       -5.0818531360       -3.8399936032
 C         1.2315500685       -4.7739320139       -2.7424428646
 O         0.4519996196       -5.6583642268       -2.4698027293
 C         1.1044309011       -3.3526581236       -2.0257379902
 C         0.3984224106       -2.4376204097       -3.0805177887
 O         1.0349758830       -1.7688667621       -3.9165458242
 C        -1.0865167228       -2.4170854362       -3.1956194385
 C        -1.6500370001       -1.3274931574       -4.2125860931
 C        -1.6144745010       -1.7269883249       -5.7896801431
 O        -1.5829732669       -2.8716439284       -6.1748302456
 C        -2.0629512306       -0.6408828268       -6.7791610122
 C        -3.6714832330       -0.8837893506       -7.1418533483
 O        -3.9612912801       -2.0024194372       -7.5100803130
 C        -4.6517307109        0.2637803389       -6.9250293134
 C        -6.0927362356       -0.1830209544       -7.0098801186
 C        -6.5935553760       -0.8715649277       -5.6510728301
 O        -5.8589606394       -0.9228934656       -4.6767092021
 C        -8.0526985321       -1.3832781927       -5.5162145501
 C        -8.0189583278       -2.8670803947       -6.0928494049
 O        -8.7067664168       -3.0685627514       -7.1062212611
 C        -7.0216784668       -3.7786941246       -5.4302230570
 C        -7.0339266058       -5.2806639490       -6.0321530164
 C        -5.7505408129       -6.0611334698       -5.8485158900
 O        -4.7548993866       -5.6978222910       -6.5045632971
 C        -5.7707032522       -7.4408663933       -5.1977345251
 C        -5.9743503163       -7.1711444393       -3.6667602401
 O        -6.9372726512       -7.6605965864       -3.1344972389
 C        -4.8461868753       -6.4430750354       -2.7912336403
 C        -5.4344520569       -6.1225171918       -1.3633137238
 C        -5.8762095358       -4.6595396792       -1.2194906427
 O        -6.4611742247       -4.1852072967       -2.1398005223
 C        -5.7368400524       -3.9438464380        0.2597497574
 C        -4.6204433226       -2.8015488257       -0.0076926087
 O        -3.4391755261       -3.1320784007       -0.0219218871
 C        -5.0655239316       -1.3349504164       -0.2298899398
 C        -4.0791652660       -0.1468556706        0.3220945373
 C        -4.3608382635        1.2250166711       -0.4499806394
 O        -5.3521256957        1.3843548973       -1.1295073987
 C        -3.2366011599        2.3477005626       -0.3426424089
 C        -2.3540420686        2.0892125878       -1.5753920732
 O        -2.5468045629        1.0851870654       -2.2518219946
 C        -1.3443958473        3.1397601621       -2.0043080303
 C        -3.7652305326        3.7242076349       -0.1993434159
 C        -2.3243468759        2.1488502903        0.9059156700
 C        -7.1641095821       -3.5315216668        0.7405654428
 C        -5.1063363680       -4.8332504918        1.4209650076
 C        -6.9463028473       -8.2825185642       -5.6763040549
 C        -4.4292357459       -8.2150370625       -5.2905745155
 C        -8.5581528044       -1.3201449464       -3.9872706850
 C        -8.9877523226       -0.6062685455       -6.4339791190
 C        -1.7603218633        0.8067191567       -6.3292230053
 C        -1.3228209040       -0.9154468474       -8.1669228224
 C         0.2321740784       -3.5208581188       -0.7679976594
 C         2.5262465023       -2.8010174502       -1.7203411638
 C         0.0219916338       -8.3713119984       -6.2545117111
 C         1.9823660598       -7.6174978095       -7.9262448920
 C        -3.5649874480       -3.5961937101      -12.2633139700
 C        -3.0485474690       -5.9149227875      -12.8889603470
 C         0.7130448343       -2.7314087644      -18.3095111449
 C         0.4665260682       -0.3611195149      -17.0490982410
 C        -5.7669382971       -0.8445751529      -22.1179731051
 C        -4.5227533319        1.3215238267      -22.5872322803
 C        -8.6134526108        5.1901459383      -20.0720047542
 C        -8.2398603438        5.2251550225      -22.5211551382
 C        -2.1570155836        5.1172107789      -18.3898973255
 C        -1.3194772879        6.7832326451      -20.0859178386
 H         1.6160296040        4.2499070541      -20.8135032257
 H         1.2175234954        5.4333147242      -19.6261950833
 H         0.6996206668        5.7343583501      -21.2644760653
 H        -3.3810218985        6.7070185571      -22.1994568000
 H        -4.1515741014        6.8597493368      -20.6435902581
 H        -4.8519020956        4.6393053831      -22.3852296204
 H        -5.5925434071        6.0646332394      -22.8030812353
 H        -8.2854368074        2.5501758001      -19.2243741286
 H        -6.6617812003        3.0659825255      -19.3802262154
 H        -7.4525679633        0.6437610822      -21.0797518165
 H        -7.2003116958        0.2740898776      -19.2821666954
 H        -4.2574341510       -2.2454665637      -19.9115061833
 H        -3.9620354535       -0.8171757674      -18.9549755367
 H        -1.5791168399       -1.9832502361      -20.3794991743
 H        -2.2594094996       -2.9784820156      -19.1587017021
 H        -0.8407269252       -1.6207140400      -14.8176462041
 H         0.3633131493       -2.6706862696      -15.1725522342
 H        -1.1332830310       -4.7139607013      -15.0674914381
 H        -2.4736960939       -3.7040316223      -14.8768003159
 H        -0.1443670456       -5.9146651108      -11.1503128880
 H        -1.2586533870       -6.8395827308      -10.2307204242
 H        -0.2044922180       -4.4232449664       -8.8313992218
 H         1.1183336408       -5.5830225511       -9.2458062850
 H         2.9260961396       -6.7800642268       -5.0043989916
 H         1.3837416002       -7.0857454286       -4.0349478990
 H         2.5163820243       -4.3441701221       -4.5810245589
 H         3.2002314545       -5.2419952088       -3.2557872891
 H        -1.4857599140       -2.3349962135       -2.1603048269
 H        -1.3403390846       -3.4006487179       -3.6635151105
 H        -1.0366481511       -0.4194621855       -4.0091996239
 H        -2.7168836253       -1.0839368616       -3.9548707139
 H        -4.5189062214        1.0059013239       -7.8438690071
 H        -4.5170015211        0.9623888082       -6.1186263783
 H        -6.1868917075       -0.8597276866       -7.8745609609
 H        -6.7604963727        0.6380114343       -7.1248940139
 H        -7.2787975486       -3.8203565954       -4.3615425806
 H        -6.0472156129       -3.3180940819       -5.5049534341
 H        -7.3793139791       -5.1500617314       -7.0166076412
 H        -7.7636209549       -5.8421870211       -5.4513239446
 H        -4.5330718845       -5.5964235635       -3.4027294814
 H        -4.0066191660       -7.1575610345       -2.6408499708
 H        -4.8158713998       -6.5179630011       -0.6353166821
 H        -6.3469726342       -6.6636524412       -1.4081162766
 H        -6.0605754551       -1.0976405776        0.2012735248
 H        -5.1080243861       -1.0663313606       -1.2712579065
 H        -3.0639426916       -0.4636765172        0.1801534904
 H        -4.1142602519        0.1728380752        1.3168001767
 H        -2.0072350426        3.9833906472       -2.1062004247
 H        -0.8521592798        2.9000076554       -2.9708151003
 H        -0.6521318607        3.2971121393       -1.1628948005
 H        -3.0078317065        4.3139639463        0.1338940660
 H        -4.6107805441        3.8464542888        0.4948765829
 H        -4.2084969611        4.1948800837       -1.0791039648
 H        -2.9086010440        1.9256041315        1.8199337353
 H        -1.8302342926        3.0875343262        1.1924821481
 H        -1.6279029746        1.3332642625        0.8028224129
 H        -7.7196918534       -4.5128056262        0.8873902714
 H        -7.7227140469       -2.9328544651       -0.0502054491
 H        -7.3468513105       -3.0269294182        1.6430974345
 H        -5.6618608674       -5.7652215969        1.6053656104
 H        -5.0649359864       -4.2492767547        2.3133637506
 H        -4.0661934911       -5.0396426030        1.2124744158
 H        -7.9021827351       -7.8590694330       -5.4756172517
 H        -6.9099840795       -9.2342510548       -5.1253211935
 H        -6.9220334812       -8.5367066255       -6.7561172611
 H        -4.1132483869       -8.5217470606       -6.2781239964
 H        -4.3921062458       -9.1649164069       -4.6598468730
 H        -3.6063604789       -7.5834695677       -5.0030093050
 H        -8.8645602855       -2.3733016564       -3.8283707895
 H        -9.3520459965       -0.5142974782       -3.9373906216
 H        -7.7554220773       -1.0998859779       -3.3176073889
 H        -8.5705584211       -0.7023644699       -7.4376782195
 H        -8.9439597317        0.4515030516       -6.2081868696
 H       -10.0487376425       -0.9613074623       -6.2252182320
 H        -1.8039129573        1.4959873586       -7.2015502020
 H        -0.7617566600        0.8974080912       -6.0346727654
 H        -2.4557957790        1.1878477661       -5.5753936393
 H        -0.3217829619       -0.4164479503       -8.1997038786
 H        -1.8503956986       -0.5582638152       -9.0434811522
 H        -1.2809824272       -2.0117496022       -8.2871363312
 H         0.7702632076       -4.1845018928       -0.1050025868
 H        -0.7712196068       -3.9551990957       -0.9239885721
 H         0.0550803392       -2.5345418469       -0.2649398293
 H         2.9151811670       -2.4628534759       -2.7486187995
 H         3.1003378152       -3.5762063441       -1.2276965899
 H         2.5475726108       -1.9799218829       -1.0598068856
 H        -0.6632293103       -7.9949482209       -5.4929822885
 H         0.9279171641       -8.8073578715       -5.8859025044
 H        -0.5186002283       -9.0200540400       -6.9508790042
 H         2.3278769336       -8.4993997628       -7.4579210282
 H         2.8048877483       -6.8326517073       -7.9882640499
 H         1.5673075024       -7.9427495722       -8.9204168816
 H        -4.4918401782       -3.8490379346      -11.7549648174
 H        -3.8165490604       -3.3981044584      -13.3121276462
 H        -3.1806140853       -2.7855097204      -11.7900258524
 H        -3.9468969917       -6.1829975808      -12.3633337878
 H        -2.3907615604       -6.7499411635      -12.9450357884
 H        -3.3141741019       -5.6104373979      -13.8415155356
 H         1.2806521632       -2.2000814155      -19.1718203743
 H         0.1478275422       -3.5341610889      -18.7119928580
 H         1.4375561480       -3.1630905103      -17.6234374465
 H         1.2859616999       -0.6206815328      -16.3924684160
 H        -0.2511910977        0.1352810606      -16.3834192271
 H         0.7831290501        0.3661977281      -17.8123928410
 H        -5.3729778062       -1.6028123827      -22.8503028021
 H        -6.5911030395       -0.3049976505      -22.5918957872
 H        -6.1888025697       -1.5624996468      -21.3715137126
 H        -4.4978439935        2.4084995546      -22.3971526575
 H        -5.3477930423        1.3653150830      -23.2837793266
 H        -3.6281099073        1.0761957696      -23.1383443354
 H        -8.4236706137        4.6698762104      -19.1875550542
 H        -9.6599955778        4.9322155699      -20.2567001937
 H        -8.4754859189        6.2443046779      -19.9127209650
 H        -8.9548552699        5.9623770347      -22.4066788618
 H        -8.7632216504        4.4007927178      -22.9637464629
 H        -7.5429560083        5.6480394975      -23.2450930083
 H        -1.3830020928        4.7572791529      -17.7238412637
 H        -2.8652205940        4.3000751097      -18.3524432638
 H        -2.5451497449        5.9765602580      -17.9529845081
 H        -1.3026075804        7.0641841503      -21.1507625154
 H        -0.2908893918        7.0962880672      -19.7685360049
 H        -2.0176034390        7.5653530488      -19.7184413099
 Na       -2.3927203561        1.6330818652      -19.8914261300
 Na       -2.8865505576       -4.4920230337       -7.4678000351
