232

 C         0.8991747846        4.9656718336      -20.5761291021
 C        -0.4842519216        4.3590154846      -20.2116376563
 O        -0.5702087693        3.1543134309      -20.0548144150
 C        -1.7146919914        5.3374254321      -19.8371957719
 C        -2.8935678439        4.9789754762      -20.7278715570
 O        -3.1749613065        3.8169228676      -20.9005507351
 C        -3.7980707045        5.9703094579      -21.3953624823
 C        -5.2049976152        5.5572751610      -21.8929323820
 C        -6.3043034357        5.1922566617      -20.8312387292
 O        -5.9820919816        5.1957582593      -19.6089962063
 C        -7.8404132548        4.7631818136      -21.3078148476
 C        -7.7575050481        3.1032571925      -21.2309883904
 O        -7.9312650273        2.5389552023      -22.2976228283
 C        -7.6272889402        2.3260529776      -19.9113463298
 C        -7.0227297077        0.9701727790      -20.1627071840
 C        -5.5182227323        0.9747208708      -20.3680487528
 O        -4.8021281300        1.5945066192      -19.5706955581
 C        -4.8721325088        0.2984170765      -21.5716372074
 C        -3.4734351064       -0.3153331701      -21.0167594456
 O        -2.3760804290       -0.0569674394      -21.4312491938
 C        -3.5166626253       -1.4383430896      -19.9861353528
 C        -2.0964845088       -1.9519064255      -19.6008979478
 C        -1.4310991384       -1.0145539734      -18.5822761977
 O        -1.7697502562        0.1691544039      -18.4439387415
 C        -0.2760049442       -1.5913662495      -17.6464997632
 C        -0.9917492992       -2.6169099983      -16.6313654531
 O        -1.7422725809       -3.4275757144      -17.0704022018
 C        -0.7130694710       -2.6946789713      -15.0635271762
 C        -1.5084451274       -3.7826077473      -14.5194096092
 C        -1.2931171642       -3.9834807399      -12.9798812400
 O        -0.2170101502       -3.6928858971      -12.5053745075
 C        -2.4852341540       -4.5482631607      -12.2223315996
 C        -2.0442659991       -4.8951819452      -10.7510522344
 O        -2.7724395431       -4.3789925351       -9.8401674383
 C        -0.8001720018       -5.6847602318      -10.3823078263
 C         0.0388533826       -5.4108114920       -9.0323977697
 C        -0.4335678414       -6.3989958038       -7.8782060026
 O        -1.6260401891       -6.4789316273       -7.5457217148
 C         0.6826168421       -7.1312600685       -6.9777103796
 C         1.2502789670       -6.0005446550       -6.0059374374
 O         1.0516374286       -4.8767698019       -6.2842004593
 C         1.9899684843       -6.4267945680       -4.7081228415
 C         2.4315694827       -5.1814548469       -3.8765877535
 C         1.3869824756       -4.8158702151       -2.7799340853
 O         0.6146099071       -5.6629211128       -2.3917261074
 C         1.2266238743       -3.3729385221       -2.0827893434
 C         0.4250072921       -2.3540324946       -3.0988988507
 O         1.0322873756       -1.7174411124       -3.8795827453
 C        -1.1966236146       -2.5073932452       -3.2350061826
 C        -1.7746603253       -1.5112059083       -4.2622937235
 C        -1.7078836546       -1.7921258107       -5.7188020631
 O        -1.5133827221       -2.9281559106       -6.1698258799
 C        -2.0503658007       -0.6428782943       -6.7622374318
 C        -3.5306202722       -0.9106976097       -7.1323728238
 O        -3.8748739958       -1.9643060747       -7.6326790647
 C        -4.5283660826        0.1926328107       -6.9525594785
 C        -5.9878603176       -0.2326555085       -7.0222527964
 C        -6.6568224770       -0.7037971113       -5.6369775840
 O        -5.9016368736       -0.8544316875       -4.6864140233
 C        -8.1423394896       -1.2773449920       -5.6178972211
 C        -8.0307232351       -2.7863395601       -6.1114487258
 O        -8.6623879696       -3.1084507108       -7.1111218681
 C        -6.9860901503       -3.7857207706       -5.4359043323
 C        -7.1656224062       -5.2800417721       -5.8518578006
 C        -5.7321439330       -5.9832751794       -5.9625904349
 O        -4.7212420464       -5.5744624478       -6.4906933499
 C        -5.7219710650       -7.4245899425       -5.1813999582
 C        -5.9515198068       -7.2499076128       -3.6137233886
 O        -6.9675577769       -7.6398482017       -3.0992547148
 C        -4.8822258570       -6.5586933414       -2.8111147592
 C        -5.3088210125       -6.2049353001       -1.3587899575
 C        -5.8686756107       -4.6984512082       -1.1770166774
 O        -6.4496203671       -4.0808791755       -2.0232574834
 C        -5.6542568831       -4.0054456304        0.2235933239
 C        -4.6308404273       -2.7162613750        0.1640535681
 O        -3.4743994200       -2.9800688062        0.1298528616
 C        -5.1556054756       -1.3281357861       -0.1519398210
 C        -4.1660210442       -0.2094033672        0.3301119499
 C        -4.3446030415        1.1270276499       -0.3485557087
 O        -5.2227620963        1.3214067545       -1.1513569156
 C        -3.1992210392        2.2537996017       -0.2425104374
 C        -2.4189251298        2.0277223104       -1.5827883540
 O        -2.5277855305        1.0234205891       -2.2129304795
 C        -1.4711433545        3.1815681304       -2.0777953190
 C        -3.8746354834        3.6902772840       -0.2926748051
 C        -2.2547317137        2.1331732856        1.0207510414
 C        -7.0497606068       -3.6294096159        0.7732597414
 C        -5.1161236492       -4.9257043508        1.3626297485
 C        -6.8875196917       -8.2370263548       -5.6919423081
 C        -4.3955249897       -8.1894421928       -5.4470971556
 C        -8.5986974186       -1.2492248433       -4.0894866452
 C        -9.0949264590       -0.5170873493       -6.5405615650
 C        -1.7474403274        0.8122299860       -6.2863888943
 C        -1.2540524798       -0.8370480566       -8.1285341833
 C         0.4530728729       -3.5111856677       -0.7398139033
 C         2.6186096583       -2.8307969274       -1.6461160183
 C         0.0026715305       -8.3926588406       -6.3395871544
 C         1.8134988761       -7.6478881311       -7.7791444995
 C        -3.5854136876       -3.4496412181      -12.2444150502
 C        -2.9951880106       -5.9319518284      -12.9304686038
 C         0.6455642327       -2.6203534092      -18.3842539920
 C         0.5130118531       -0.5489305905      -16.9464137149
 C        -5.6358867000       -0.7399492387      -22.2114932047
 C        -4.5221111861        1.4541810949      -22.6221788817
 C        -8.7354559975        5.2469709953      -20.1143456636
 C        -8.2976213757        5.2524730457      -22.6895240788
 C        -2.2289190618        5.1100891368      -18.3569203460
 C        -1.2695443561        6.8695758271      -20.1360720351
 H         1.3073344549        4.1388033865      -21.1563247548
 H         1.5305002955        5.0107386328      -19.6880274617
 H         0.9106915522        5.8354662488      -21.1660099672
 H        -3.3620410626        6.3707292798      -22.2475902535
 H        -4.0337100340        6.9353665540      -20.8269283742
 H        -4.9461060096        4.7508524139      -22.6118378337
 H        -5.5940339397        6.3036129695      -22.5168110801
 H        -8.6075460231        2.2828342472      -19.4290299484
 H        -7.0302640554        2.9836298663      -19.2572225044
 H        -7.4254383441        0.5377101708      -21.0989517048
 H        -7.0955889857        0.2663342662      -19.3692031428
 H        -4.1880315512       -2.3397178319      -20.2291764773
 H        -3.9828778319       -1.1210675647      -19.0698656582
 H        -1.4675908930       -2.1027826830      -20.4286515603
 H        -2.2497050257       -2.9534641778      -19.1430897850
 H        -0.9620682765       -1.7488377061      -14.5150857416
 H         0.3176111382       -2.7190472285      -14.7960165863
 H        -1.3235698034       -4.7300971380      -14.9626471862
 H        -2.5478764346       -3.5321127262      -14.8030590899
 H        -0.1051862132       -5.4416748201      -11.1709589291
 H        -0.8940651224       -6.7436512657      -10.4982374103
 H        -0.1548846405       -4.3028945469       -8.6964912824
 H         1.1598696934       -5.5283633173       -9.2361713063
 H         2.8376937641       -7.2456750595       -4.8435630141
 H         1.1682933051       -6.8723138775       -4.0558835553
 H         2.5763195480       -4.3981193606       -4.6407860039
 H         3.3572985631       -5.2840805583       -3.3596467974
 H        -1.5385046892       -2.1204943306       -2.3330604662
 H        -1.5864210065       -3.4444409858       -3.4347576428
 H        -1.3850944102       -0.4989969948       -4.0563147047
 H        -2.8428721215       -1.5168008601       -3.9345898579
 H        -4.4292865222        1.0694345133       -7.6511791225
 H        -4.4272701233        0.7758016302       -5.9398059531
 H        -6.1511161698       -1.1856719785       -7.7058639866
 H        -6.6548610952        0.5689107570       -7.4177098101
 H        -6.8080811007       -3.7234471269       -4.3829036410
 H        -6.0389719181       -3.4623938765       -5.9318811269
 H        -7.7675671881       -5.2733712571       -6.7030148301
 H        -7.6543459467       -5.7774533279       -5.0807358046
 H        -4.4713470870       -5.7334335399       -3.4169804036
 H        -4.0634318795       -7.2885021299       -2.6637621125
 H        -4.3917701456       -6.3353532645       -0.8050067425
 H        -6.0132521786       -6.9839512670       -1.0806065117
 H        -6.0160560213       -1.0315052053        0.4392934208
 H        -5.3804468980       -1.1380281287       -1.2314943932
 H        -3.1661546403       -0.4789815443        0.2059158716
 H        -4.2057087163        0.0141686237        1.4289004873
 H        -1.9826331239        4.0262078693       -2.5654003769
 H        -0.6930720743        2.7634108915       -2.7020722306
 H        -1.0492470369        3.4195095926       -1.1079935329
 H        -3.2320378119        4.5279532147       -0.1208762029
 H        -4.6757036809        3.7984571416        0.4291758548
 H        -4.4574306434        3.8487961496       -1.1623522422
 H        -2.6619462483        1.8685131853        1.9719293476
 H        -1.8913498882        3.1449598960        1.1301399339
 H        -1.4455689230        1.4087758519        0.8789765554
 H        -7.5737653081       -4.5179763523        1.0195384243
 H        -7.6703879535       -3.0309474119        0.0949386071
 H        -7.0809338284       -3.0120025710        1.7223675656
 H        -5.6269814089       -5.9387873576        1.3146604184
 H        -5.3091831028       -4.4673076532        2.3538128834
 H        -4.0151852737       -5.0432221710        1.2944604326
 H        -7.9177731061       -7.9964053433       -5.3991582550
 H        -6.7107820139       -9.3155972193       -5.4195123616
 H        -6.8693039353       -8.2195138385       -6.7257694907
 H        -4.0866078376       -8.1372227999       -6.5006695476
 H        -4.4417205189       -9.2213285656       -5.2332042777
 H        -3.5182669370       -7.7788614768       -4.9838921444
 H        -9.0565178784       -2.2772570223       -3.9091623925
 H        -9.2970691217       -0.4132717705       -4.0476571998
 H        -7.7139847066       -1.0736099351       -3.4105863130
 H        -8.5817331163       -0.5168446626       -7.5669388893
 H        -9.1977090124        0.5194790059       -6.2013363714
 H       -10.0651698398       -0.9718528720       -6.4406557359
 H        -1.5578664123        1.4774999904       -7.1458925228
 H        -0.6973123922        0.8633563649       -5.8751397950
 H        -2.4759763448        1.3444011784       -5.6632169486
 H        -0.1998990994       -0.6500752844       -7.9623624573
 H        -1.6404761254       -0.0886399551       -8.9429496766
 H        -1.4853309155       -1.8280304282       -8.5646560350
 H         1.0603518978       -4.0736622585       -0.0554778422
 H        -0.4494161610       -3.9821678733       -0.8364533295
 H         0.2396749639       -2.5189362040       -0.3329485283
 H         3.3608593509       -2.7089130221       -2.5139280235
 H         2.9356849770       -3.4908217709       -0.8723702155
 H         2.5000570660       -1.8586534010       -1.1289879415
 H        -1.0240931364       -8.0943871073       -6.0585437669
 H         0.7530859636       -8.5967156553       -5.5125660516
 H        -0.0441787653       -9.1683934014       -7.0775500282
 H         2.1401830311       -8.6242019681       -7.2822789422
 H         2.5583864595       -6.9225189330       -7.6212514942
 H         1.5907868804       -7.8167279180       -8.9071267986
 H        -4.5287247770       -3.8523311176      -11.9134178725
 H        -3.7340099051       -3.0393695622      -13.2075142484
 H        -3.3034011035       -2.7059876860      -11.4577018772
 H        -3.6929325587       -6.3691376307      -12.2172274553
 H        -2.2197637160       -6.6320324854      -13.1212776672
 H        -3.5717142862       -5.6647577775      -13.7719611316
 H         1.1179700787       -2.1156185874      -19.2275952748
 H         0.1291386153       -3.5782203235      -18.7315938480
 H         1.3497346868       -3.0075871098      -17.6912754368
 H         1.2420296508       -0.9000841449      -16.1709622259
 H        -0.2277757316       -0.0269372578      -16.3356788177
 H         0.9912203734        0.2104655666      -17.6538269104
 H        -5.0605215296       -1.2952274613      -22.9838407945
 H        -6.5067825356       -0.1958512276      -22.7718975603
 H        -6.0397105857       -1.5294536989      -21.6479718062
 H        -4.1242160549        2.4206123450      -22.3360952811
 H        -5.4384612640        1.8921681460      -23.0411313088
 H        -3.8001606774        1.0380610365      -23.4783215205
 H        -8.4156273983        4.8923928449      -19.2064247486
 H        -9.6717692670        4.7589359525      -20.1976707682
 H        -8.8899915644        6.3133932059      -20.1176691485
 H        -8.6600818993        6.2569948302      -22.6326382893
 H        -9.0691729329        4.6832821892      -23.1488512379
 H        -7.4388485416        5.4078869889      -23.3238295185
 H        -1.5012775046        4.5820567517      -17.7395911549
 H        -3.1479576822        4.4154756499      -18.2788425052
 H        -2.4223310634        6.0767968712      -17.8576352724
 H        -0.9370405915        7.2335957108      -21.1084908861
 H        -0.4002914761        7.1025614637      -19.5600901042
 H        -2.0284481651        7.5958644767      -19.8118435416
 Na       -2.5229174683        1.7573935099      -19.8952853302
 Na       -2.7403033341       -4.5206485950       -7.4390396537
