232

 C         0.8637931681        4.8830543175      -20.6421384239
 C        -0.5047988155        4.3794618064      -20.2123622347
 O        -0.7504761062        3.2086175229      -20.1360431785
 C        -1.6199570019        5.3543266912      -19.8815308090
 C        -2.9940427051        4.9205824413      -20.7984967999
 O        -3.3300654560        3.7166626892      -20.8729824549
 C        -3.8284319704        6.0024156550      -21.4453855009
 C        -5.2961928708        5.5027223043      -21.8897886954
 C        -6.2810134786        5.1040538696      -20.7959707934
 O        -6.0643570192        5.1921851816      -19.6481467515
 C        -7.7541529238        4.6827358885      -21.2675272003
 C        -7.8880440673        3.1334938905      -21.3514376211
 O        -7.9277981203        2.5455591127      -22.3608047194
 C        -7.7896728247        2.3427648285      -20.0426000285
 C        -7.0989567678        0.9891478918      -20.2150013499
 C        -5.4963147886        0.9906736782      -20.3501789559
 O        -4.8081180851        1.3969419921      -19.4311819290
 C        -4.8262954630        0.2905665895      -21.6554705617
 C        -3.4923075790       -0.4279601619      -21.0722977635
 O        -2.4352231869        0.0123642076      -21.5370531552
 C        -3.5654638978       -1.5934854452      -20.0419958847
 C        -2.1297778665       -1.9133095964      -19.5925150625
 C        -1.4818381286       -1.0214209505      -18.5228663554
 O        -1.7289489896        0.1805926381      -18.4113097429
 C        -0.3936877867       -1.6414917419      -17.5679938064
 C        -1.0284088620       -2.6386914723      -16.6104040767
 O        -1.8756487067       -3.5311090691      -16.9119899300
 C        -0.7231022993       -2.6182409038      -15.1054576298
 C        -1.5206181869       -3.7667394344      -14.4908197888
 C        -1.3055550534       -3.9084576447      -12.9574695898
 O        -0.3195212574       -3.4326733515      -12.4337087129
 C        -2.5109780931       -4.4697930725      -12.1003658573
 C        -1.9387487828       -4.7859264297      -10.6214936046
 O        -2.6591288479       -4.3992491452       -9.7601278418
 C        -0.6844317726       -5.5747862343      -10.4934476482
 C        -0.1464011748       -5.4565317686       -9.0574832560
 C        -0.4939565119       -6.4632635172       -7.8752440333
 O        -1.6652420489       -6.6615420363       -7.6170593028
 C         0.7056552693       -7.1360078125       -7.0297839247
 C         1.1058180320       -5.9983035710       -5.9670594281
 O         1.0487107342       -4.8136541064       -6.2333130067
 C         1.9192556778       -6.3938358474       -4.7327017751
 C         2.4270516833       -5.1710805445       -3.8741795105
 C         1.4446455244       -4.8467657421       -2.7548772590
 O         0.7274677442       -5.7499485749       -2.3380654892
 C         1.3163291461       -3.4347524409       -2.1626784081
 C         0.4869608620       -2.4894204994       -3.2416105814
 O         1.0677621362       -1.6072505535       -3.8084383280
 C        -1.0874555241       -2.6069520901       -3.2166180732
 C        -1.8559924037       -1.5836493814       -4.2202069014
 C        -1.6992016406       -1.8999986254       -5.6877676807
 O        -1.4655615065       -3.0320046827       -6.1099576368
 C        -1.9613321433       -0.6797962078       -6.8219307272
 C        -3.4858882577       -0.9557936952       -7.1354841238
 O        -3.7526323567       -2.0101816947       -7.7017718056
 C        -4.5654043158        0.1461055494       -6.8728677638
 C        -6.0244582963       -0.3175474588       -7.0650755582
 C        -6.6165395358       -0.7286775437       -5.6850109948
 O        -5.9242261973       -0.7059114510       -4.7035952216
 C        -8.1098526728       -1.1707042404       -5.7228822769
 C        -7.9184338767       -2.7779504020       -6.2312326026
 O        -8.6008678381       -3.2331504941       -7.0575431597
 C        -6.8818332095       -3.6557699523       -5.5542030474
 C        -7.0706214546       -5.1601146408       -5.6505771786
 C        -5.7699106230       -5.9818238022       -5.8117486907
 O        -4.8932980813       -5.4188693793       -6.4083927002
 C        -5.6910316138       -7.4321771926       -5.2841537649
 C        -5.9807163779       -7.2271737451       -3.5575378230
 O        -7.0174243503       -7.6311449619       -3.1112912156
 C        -4.8266706704       -6.5427276738       -2.7450175335
 C        -5.1466419801       -6.0637693180       -1.3054485477
 C        -5.7247135272       -4.7096358812       -1.0703017297
 O        -6.3676908324       -4.0764335266       -1.9679180587
 C        -5.6072258777       -4.0755632119        0.3224060298
 C        -4.7014707903       -2.7451750183        0.1602279900
 O        -3.4898542431       -2.8333070855        0.3120129761
 C        -5.3048189644       -1.3473695948       -0.0046358353
 C        -4.2451496350       -0.3533777774        0.4275037841
 C        -4.3056731448        1.0239311775       -0.3306719211
 O        -5.1840933213        1.2666827301       -1.1153603504
 C        -3.2094558166        2.1907294228       -0.2385801081
 C        -2.3863032463        1.9894218026       -1.4955729647
 O        -2.4353497370        0.9860509303       -2.1874507319
 C        -1.5664679111        3.2026733558       -2.0826223537
 C        -4.0024836517        3.5140649472       -0.3494793854
 C        -2.2884224384        2.0877511880        0.9741334309
 C        -7.0266760103       -3.5832867836        0.7304974056
 C        -4.9739631363       -5.0855554220        1.2963182004
 C        -6.8782454161       -8.2807329230       -5.8422550877
 C        -4.3692277843       -8.0159938019       -5.6069292699
 C        -8.6436271384       -1.2115024450       -4.2582464222
 C        -9.1259588598       -0.4239770776       -6.5956732320
 C        -1.7168224908        0.7118371427       -6.1669911505
 C        -1.1370525687       -0.8643469463       -8.0264476882
 C         0.5449766373       -3.5408620934       -0.8065589900
 C         2.7156842970       -2.7733587366       -1.8387075748
 C        -0.1389328255       -8.3643185369       -6.2637772496
 C         1.8874463597       -7.6821789438       -7.8710791682
 C        -3.6161426090       -3.4586441169      -12.0958711928
 C        -2.9023242863       -5.8279922706      -12.8372234754
 C         0.6412205460       -2.4004944379      -18.6001371271
 C         0.5256418385       -0.6770785377      -16.8244331457
 C        -5.5802774250       -0.7594902426      -22.4096086875
 C        -4.4622891731        1.4718680702      -22.6250897725
 C        -8.8413344480        5.2923866686      -20.2276949805
 C        -8.1688834207        5.2180076042      -22.5945169316
 C        -2.1269316337        5.1739913856      -18.4587333386
 C        -1.2651574620        6.8482544644      -20.0288587929
 H         1.1060541060        4.1644811237      -21.3820394743
 H         1.6809015324        4.8215285014      -19.8616310483
 H         0.8222415362        5.8729832340      -21.1563140149
 H        -3.3718479530        6.4800094243      -22.2478911823
 H        -4.0696006131        6.8492156808      -20.8080700405
 H        -5.0677208492        4.7940397678      -22.7025098799
 H        -5.8372280159        6.3374082965      -22.4338409004
 H        -8.8463375519        2.1063247598      -19.7989452331
 H        -7.4577263894        2.9010338974      -19.1773428310
 H        -7.5081274823        0.3855412304      -20.9992812718
 H        -7.1347809080        0.4591393767      -19.2827969156
 H        -3.9447194288       -2.4879176751      -20.5268752485
 H        -4.2905151287       -1.4265416611      -19.3060321101
 H        -1.5389961262       -1.9122375918      -20.5816620534
 H        -2.0726975237       -2.9663222328      -19.2722026588
 H        -0.7419795453       -1.6750160973      -14.5602554137
 H         0.3323185641       -2.8512872180      -14.9064457854
 H        -1.2324482402       -4.7237287351      -14.9440732986
 H        -2.6148070248       -3.6760505815      -14.6747675855
 H         0.0856112035       -5.2923863293      -11.1764375514
 H        -0.8288776272       -6.6246269420      -10.7287565074
 H        -0.4353123231       -4.4337600600       -8.6730475339
 H         0.9682375253       -5.4307260142       -9.1254828391
 H         2.7520493608       -6.9200199223       -5.1220331091
 H         1.4101796764       -7.0229609262       -3.9424840588
 H         2.6399638395       -4.3284203343       -4.5656613190
 H         3.4078625488       -5.4279303976       -3.4097269028
 H        -1.3926207324       -2.3659557965       -2.2361460003
 H        -1.4429747196       -3.5307713999       -3.5593626567
 H        -1.6343043087       -0.5351304434       -4.0691103999
 H        -2.8368187904       -1.7864974848       -3.8242886930
 H        -4.4349142375        1.0794040095       -7.3129580029
 H        -4.4675212800        0.4416109196       -5.7577878453
 H        -6.1509036137       -1.2847936738       -7.6306001161
 H        -6.8080852398        0.4182701057       -7.5296444768
 H        -6.8768456714       -3.5103000472       -4.4678426086
 H        -5.8570079051       -3.3749062147       -5.8628965436
 H        -7.3990356460       -5.3325687642       -6.6912074298
 H        -7.8469686833       -5.4633787238       -4.9724624483
 H        -4.4715668242       -5.6531605164       -3.3896354331
 H        -3.9471608091       -7.2055463647       -2.6960042663
 H        -4.1333929682       -6.1612232600       -0.7856688903
 H        -5.8840507463       -6.8142853402       -0.8666244729
 H        -6.1648506015       -1.0226065447        0.5376867688
 H        -5.4614108438       -1.1446449085       -1.1000291808
 H        -3.2595991242       -0.7648829755        0.0969511752
 H        -4.0616206624       -0.2333398262        1.5437249923
 H        -2.2215212143        3.6274603071       -2.8684408636
 H        -0.7299321579        2.7589591248       -2.5733893884
 H        -1.2384692170        3.8977126329       -1.3277299600
 H        -3.4481992506        4.5047238147       -0.5874149791
 H        -4.5791941493        3.8048730067        0.4926520186
 H        -4.7943826045        3.3874709809       -1.0454258716
 H        -2.7494933550        1.8829761488        1.9249743951
 H        -1.7274771876        3.0129212766        1.0605382660
 H        -1.6637937304        1.2010874611        0.8590838355
 H        -7.7382704296       -4.3298389690        0.9908333895
 H        -7.4281074021       -3.0101564252       -0.0401727242
 H        -7.0159139386       -2.8355706073        1.5734291230
 H        -5.4583464723       -6.0516305575        1.0916572745
 H        -5.0466796011       -4.8743224010        2.4196167061
 H        -3.8813146610       -5.1814614145        1.0214696786
 H        -7.8752796287       -8.0421561706       -5.4287445936
 H        -6.7421874387       -9.3285055277       -5.7154413178
 H        -7.0010320497       -8.0999257720       -6.9320162509
 H        -4.1054062558       -7.8239793554       -6.6344323301
 H        -4.4471306769       -9.0515210322       -5.5963605128
 H        -3.4554472378       -7.7515318014       -5.1057115878
 H        -9.4379545807       -1.9635369412       -4.1729309304
 H        -9.0674617235       -0.2091551397       -4.1947289051
 H        -7.7658621514       -1.3189660966       -3.5487739269
 H        -8.7385150054       -0.3249666565       -7.6086470430
 H        -9.3999443262        0.5641599294       -6.1291421430
 H        -9.9987349532       -1.0106462112       -6.5182026177
 H        -1.8117883085        1.6209349854       -6.8032243729
 H        -0.6152181695        0.8245022612       -5.8803908258
 H        -2.4172708191        0.8860819795       -5.3206303180
 H        -0.0788411786       -1.0827489751       -7.7276474718
 H        -1.1769640888        0.0493990813       -8.6595723760
 H        -1.5757697238       -1.6236417549       -8.6909202861
 H         1.1412893467       -4.1352207153       -0.1457243439
 H        -0.3659405744       -4.0839815499       -1.0265474186
 H         0.3129871106       -2.6233541973       -0.3987627921
 H         3.4132306261       -2.8481234665       -2.5829068472
 H         3.0625957386       -3.2638545092       -0.8867275418
 H         2.5174234786       -1.6934189319       -1.5317479273
 H        -1.1981400039       -8.1471985771       -6.4175508524
 H         0.2445064020       -8.3805653988       -5.2397136242
 H         0.0892269819       -9.2591221996       -6.8720711047
 H         2.4104137741       -8.5100750661       -7.2782534311
 H         2.5258419145       -6.8099322487       -7.8920987974
 H         1.6151470082       -7.9828212896       -8.8540570731
 H        -4.5374938852       -3.9796082078      -11.8441040567
 H        -3.7689570401       -3.0091012653      -13.0700781889
 H        -3.4670614304       -2.7258571896      -11.2336231049
 H        -3.4269138590       -6.5019010404      -12.1748947343
 H        -1.9563927789       -6.3226821862      -13.1177908749
 H        -3.6127662940       -5.5647923719      -13.6879074724
 H         0.9221811305       -1.7071738076      -19.3112009090
 H         0.2393463686       -3.3239694244      -19.0708761318
 H         1.4375924821       -2.8908764408      -17.9836974798
 H         1.2371172926       -1.1397843889      -16.0989927010
 H         0.0166583008        0.0927352542      -16.1857268355
 H         1.0717510652       -0.1792711486      -17.6313429129
 H        -4.9611584408       -1.2249013026      -23.1573687608
 H        -6.4711565866       -0.4394751797      -22.9079559209
 H        -5.8853269915       -1.6103710745      -21.7744585756
 H        -3.6805940604        2.1709071381      -22.3360240923
 H        -5.2503097631        2.2853401652      -22.5609637198
 H        -4.1913820324        1.2066783235      -23.6307367286
 H        -8.6787510840        5.3352752577      -19.1016298102
 H        -9.6462582254        4.6197056589      -20.3206075389
 H        -9.2198885739        6.1874753121      -20.6386858583
 H        -8.0409212031        6.3418843728      -22.6805149352
 H        -9.2247892406        5.0153485750      -22.8250709459
 H        -7.4987691340        4.9101318211      -23.3492688629
 H        -1.3746800310        4.6108029419      -17.8322779132
 H        -3.0258811805        4.5337435445      -18.3814629171
 H        -2.3190866558        6.1732305365      -17.8909615245
 H        -0.7092369792        7.2436295303      -20.8711047799
 H        -0.5704859722        7.1273103468      -19.2793783849
 H        -2.1338106667        7.4273168712      -19.8127875503
 Na       -2.5468611897        2.0624056881      -19.8356749346
 Na       -2.7077681499       -4.3953182994       -7.4304626815
