232

 C       -19.0967096518       -5.0009153301       -5.3463368697
 C       -19.3464790483       -5.9648613992       -4.2014765497
 O       -18.4548169129       -6.7526160286       -3.8664717416
 C       -20.6848381064       -5.9482956375       -3.2028967280
 C       -20.1888291533       -5.6932457565       -1.7085076551
 O       -19.8016883748       -6.6413481755       -1.0036071842
 C       -20.0344920086       -4.2579416226       -1.0629425679
 C       -18.9078568990       -4.3658924290       -0.0597898241
 C       -17.5759668047       -3.8137792738       -0.7221481888
 O       -17.5927812243       -2.9401258425       -1.5791422640
 C       -16.2399857706       -4.4229103606       -0.2065703447
 C       -16.1058962752       -5.7967702365       -0.9501811376
 O       -16.9837972869       -6.6070778799       -0.6923898692
 C       -15.0323405170       -6.2588416803       -1.9996140966
 C       -14.3376344879       -7.5186314796       -1.5045626652
 C       -14.8742783154       -8.7883436216       -2.1468768205
 O       -16.0545389983       -9.0272172987       -2.3204919952
 C       -13.8344187123       -9.8600933383       -2.6964432738
 C       -12.6746827499       -8.9905365524       -3.4344916633
 O       -12.9537232702       -7.8478201206       -3.7400806006
 C       -11.4196168121       -9.8309715184       -3.7867140561
 C       -10.6997302399       -9.7046169390       -5.1846212983
 C        -9.2207396564      -10.0468696021       -5.0895227622
 O        -8.8317825306      -10.8260475581       -4.2088747471
 C        -8.2597941877       -9.3476515316       -5.9785494022
 C        -8.2017208620       -7.7269894246       -5.5284287111
 O        -8.9155047308       -7.2664878030       -4.7001201691
 C        -6.9941084899       -6.9601721587       -6.0979752583
 C        -7.3026511333       -5.4340936735       -6.5480478175
 C        -8.2740456242       -5.3782503998       -7.7932064712
 O        -9.0143274532       -6.3122105008       -8.0011914998
 C        -8.4994582036       -4.0766604356       -8.6361312479
 C        -7.1628325194       -3.7703946048       -9.4862216360
 O        -6.0950707523       -3.6861127618       -8.9154430598
 C        -7.2482597304       -3.5202658673      -11.0394073083
 C        -5.8117740121       -3.4814844241      -11.5641933483
 C        -5.7205133028       -2.6484274346      -12.9062018831
 O        -6.6121263922       -1.9717805111      -13.3968148012
 C        -4.2703093716       -2.8662397662      -13.7468666793
 C        -3.0437002521       -2.5511220616      -12.9490337273
 O        -3.0246180134       -2.3525676435      -11.7332828479
 C        -1.7591530986       -2.5571976971      -13.6712505210
 C        -0.5334307825       -2.8987397469      -12.7668831904
 C         0.7309873152       -2.1517859788      -13.1727994830
 O         0.7630795680       -1.2653955503      -13.9877561322
 C         2.0919191942       -2.3776166584      -12.4405089545
 C         2.7726609602       -1.1405328293      -12.0411946146
 O         4.0167806175       -1.1313718073      -11.8320648075
 C         1.8936404563        0.0837632664      -11.6123933867
 C         2.7238394049        1.0282345902      -10.7597047577
 C         2.6927065393        2.4881033482      -11.2242963310
 O         1.8797180356        2.9999753809      -11.8962626205
 C         3.8198427018        3.5666858559      -10.5132852840
 C         4.3282843528        4.4294888587      -11.7709960201
 O         5.4221069664        4.2266765763      -12.2281131531
 C         3.4056640217        5.4744409055      -12.4824334162
 C         4.0051186564        6.9272521625      -12.5160550944
 C         5.3772304273        7.0109098013      -13.1630633752
 O         5.5238243320        6.4559395750      -14.2743173279
 C         6.5601562226        7.7992449721      -12.4493933112
 C         7.8731470368        7.8745367664      -13.5054647117
 O         8.1150767267        8.8548989935      -14.0896485348
 C         8.7765112161        6.5830352694      -13.5464630727
 C         9.4576783626        6.3657024671      -14.9329601745
 C         8.4628058223        5.7777955111      -16.0611719845
 O         7.4808320919        5.1503375072      -15.8905310513
 C         8.8863083573        6.0692240075      -17.6674014489
 C         9.8741999189        4.9926214179      -18.3110937677
 O        10.5972939337        4.3749653318      -17.5545808650
 C         9.9075304662        4.7295942549      -19.7992379079
 C         9.6642944531        3.2447927099      -20.1551541757
 C         8.3597454774        2.6471065120      -19.4468867397
 O         7.9409561119        3.1171682532      -18.3918085464
 C         7.7082064170        1.3032828466      -19.9476562745
 C         7.6452751792        0.0984964432      -18.8903518342
 O         8.2737868145       -0.8918763160      -18.9660979030
 C         6.8359951231        0.3974603888      -17.5735078638
 C         7.7650120804        0.6066108273      -16.3082146007
 C         7.0663570417        1.3158059549      -15.1710559288
 O         7.5967950175        2.2935324079      -14.6805686749
 C         5.8873398944        0.5611985103      -14.3472550520
 C         4.5692202113        1.0939474048      -14.9757382776
 O         4.3814207317        2.3054219351      -14.8978951052
 C         3.5878404951        0.1523671129      -15.5511946281
 C         5.9915159689       -1.0207772722      -14.4692488734
 C         5.9504504442        0.9051209611      -12.9021229546
 C         6.1519692567        1.6637484872      -20.2869983344
 C         8.3300278312        0.7508571714      -21.2024577433
 C         7.5841128380        6.1659224071      -18.4346763374
 C         9.5748951364        7.4483917393      -17.8699894721
 C         6.2410870248        9.3002257509      -12.3385630310
 C         6.8446470120        7.1163957773      -11.0961863118
 C         3.0029507416        4.3839830838       -9.5550696288
 C         5.0099098506        2.9040826611       -9.8790909347
 C         1.8768503941       -3.2266021566      -11.1803596675
 C         3.0905994956       -3.2429128265      -13.3738456938
 C        -4.3175952248       -4.3345984848      -14.2277529133
 C        -4.3304462791       -1.8398167789      -14.9140765762
 C        -9.6897167971       -4.3249743222       -9.5761306038
 C        -8.6560426316       -2.7661713822       -7.7734605258
 C        -6.8333018992      -10.0417450199       -5.9738933997
 C        -8.7085337180       -9.4305282043       -7.3963096797
 C       -13.3503769330      -10.7722699436       -1.5830664396
 C       -14.3992699373      -10.8240207387       -3.7780550276
 C       -15.0680024912       -3.4754285882       -0.5106072908
 C       -16.3229909269       -4.5799773630        1.3491184775
 C       -21.5440579826       -4.7158126516       -3.6818904096
 C       -21.3888659169       -7.2758009844       -3.2915195139
 H       -19.3258756279       -4.0122510403       -5.0068006720
 H       -19.8163463435       -5.4103360735       -6.0612079246
 H       -18.0897101738       -5.1291603964       -5.8091031136
 H       -21.0250416986       -4.1428407436       -0.6018022317
 H       -19.8873752305       -3.3959639017       -1.7493555012
 H       -18.7409848459       -5.4203741613        0.2995635069
 H       -19.0872525028       -3.7491533694        0.8378129610
 H       -14.3337764135       -5.4824685536       -2.2443710543
 H       -15.5229827953       -6.5071205014       -2.9577996793
 H       -14.4785095842       -7.6551307748       -0.4094830938
 H       -13.2335278860       -7.4429415797       -1.5300656971
 H       -11.6138866055      -10.8940453453       -3.5415344680
 H       -10.6351579434       -9.4663695415       -3.0828285478
 H       -10.7327990623       -8.7889251635       -5.7346473506
 H       -11.1687623210      -10.4873286161       -5.7748843065
 H        -6.6156065043       -7.5405905427       -6.9174899604
 H        -6.1591124980       -6.9290711049       -5.4395272406
 H        -6.3149414479       -4.9727202369       -6.7338552987
 H        -7.8777023299       -4.9429039256       -5.6841343524
 H        -7.8259980564       -2.5702984719      -11.1785293484
 H        -7.8517961613       -4.4361635556      -11.3889816077
 H        -5.3977885483       -4.4315963873      -11.6426893217
 H        -5.1565858863       -3.0037012338      -10.7631076180
 H        -1.3102676130       -1.5871665662      -13.9288744442
 H        -1.6406905056       -3.0885902866      -14.5929509230
 H        -0.2882330227       -3.9095899593      -12.6642737405
 H        -0.7605037038       -2.6004354058      -11.7728096643
 H         1.0058474721       -0.3584938535      -11.0466569586
 H         1.4740972592        0.3528376964      -12.6090375378
 H         3.7025702898        0.6783025627      -10.9318492669
 H         2.6902498019        0.9236627852       -9.6512938844
 H         2.4815942434        5.6209990110      -11.9772502833
 H         3.2637669655        4.9860104383      -13.4964624264
 H         4.1547923060        7.4199685072      -11.6035507965
 H         3.3509553532        7.4812359448      -13.1514569864
 H         8.1249802947        5.7022966636      -13.3372851698
 H         9.5695778660        6.5139090006      -12.7517740822
 H        10.2783607778        5.7165244060      -14.9050777839
 H         9.8383587928        7.3965416960      -15.2896617725
 H        10.8715756939        5.0042057775      -20.2568044465
 H         9.1548934242        5.2659469758      -20.3987959188
 H        10.4844380541        2.6163784128      -19.7336477399
 H         9.7442272743        3.2135399090      -21.2417397789
 H         6.0461935807       -0.3691850943      -17.4068483761
 H         6.4011534590        1.3689778246      -17.7903167881
 H         8.5374549991        1.1998423036      -16.7312681610
 H         8.2695231079       -0.3529285342      -16.0717416210
 H         4.0776759971       -0.5491279740      -16.1930142968
 H         2.9601063138        0.8111154268      -16.1848617465
 H         2.9024848225       -0.2952580357      -14.9144450310
 H         5.2247323669       -1.5155844934      -13.9446968429
 H         6.9123767149       -1.2555536936      -13.8863885806
 H         6.2437970145       -1.3948985357      -15.4451466993
 H         5.2863629021        0.3009768573      -12.3043755516
 H         5.6530003200        1.9629891609      -12.7129747778
 H         6.8159113109        0.6357578705      -12.3536096409
 H         5.5804796442        0.7376326873      -20.5370518838
 H         6.2007710002        2.0470318652      -21.3384733174
 H         5.5272805156        2.0667903597      -19.4653857773
 H         7.7408384879       -0.0489859966      -21.6072323523
 H         9.3299117529        0.3656791272      -21.0627966905
 H         8.5066758727        1.5564949541      -21.8935317429
 H         6.8979809868        6.9612527464      -18.0211231524
 H         7.1049717816        5.1912838174      -18.5243686609
 H         7.7272275863        6.6150070139      -19.4227620936
 H        10.6570248792        7.6043544739      -17.5888488201
 H         9.0817451115        8.2860629169      -17.2849401835
 H         9.5558600946        7.8088638653      -18.9301787031
 H         7.0377196097       10.0237380303      -12.0855507008
 H         5.3839970444        9.6128969750      -11.7376798574
 H         6.0335207989        9.6117562172      -13.4155244147
 H         7.8960101722        7.1468874467      -10.9144610694
 H         6.4835618090        6.0256547022      -11.0907889685
 H         6.2453063002        7.5666792147      -10.3245542378
 H         2.1640750624        3.9907062275       -8.8835553009
 H         2.5066786204        5.2803063153       -9.9057949406
 H         3.6173220625        4.7712101284       -8.7690184062
 H         5.5664113792        3.7480301966       -9.4228693772
 H         5.6333551870        2.3038569300      -10.5795872424
 H         4.6408607814        2.2107717772       -9.0741622857
 H         1.0948185979       -2.7890106370      -10.5653518784
 H         2.7330549579       -3.3148085271      -10.4377336107
 H         1.6859765765       -4.2790444632      -11.5036787085
 H         2.5945094620       -4.0295465787      -14.0243060846
 H         3.7346587397       -3.7496729941      -12.5867519202
 H         3.7602362599       -2.5874949537      -13.9611350512
 H        -3.2977857431       -4.6686208934      -14.3154523407
 H        -4.7885156670       -4.4855960880      -15.1994654184
 H        -4.8716422442       -4.9802734755      -13.5347826174
 H        -3.9194977568       -2.2703555566      -15.8655247830
 H        -3.6813717087       -0.9919489461      -14.7785422092
 H        -5.3011016235       -1.4473147036      -15.2091149898
 H        -9.4019732728       -5.0511553993      -10.3673649196
 H       -10.1061043601       -3.4196749081      -10.0625408687
 H       -10.4764432324       -4.6663767144       -9.0357324354
 H        -9.1938048227       -2.8668181177       -6.8293049922
 H        -9.2042611910       -2.0691588626       -8.3907198291
 H        -7.7324396980       -2.1707431881       -7.5991152971
 H        -6.8835550356      -10.9938295833       -5.4568329563
 H        -6.1437956838       -9.4793501586       -5.3481679919
 H        -6.3731279536      -10.2267332491       -6.9957750095
 H        -8.8262894673      -10.5531845724       -7.5242149666
 H        -7.9571381694       -8.9208668280       -8.0412359261
 H        -9.6840417249       -8.9671545584       -7.6132768154
 H       -12.5346847225      -10.3438830276       -0.9475683026
 H       -12.9101347181      -11.6566190220       -1.8665734403
 H       -14.1983713712      -11.0640363935       -0.9471452419
 H       -14.3320980259      -10.3501138856       -4.7737759545
 H       -15.5031933913      -10.9438492706       -3.5429680797
 H       -13.8847362355      -11.8079193727       -3.6272898665
 H       -15.1802506598       -2.8637601628       -1.3903552813
 H       -14.1193940207       -4.0065837772       -0.7008388421
 H       -14.7383063004       -2.7419057628        0.2387606504
 H       -17.0482968333       -5.2863729471        1.6571161109
 H       -16.5747881308       -3.5745789845        1.8686631365
 H       -15.3592712700       -4.7973336182        1.7030390636
 H       -20.9791926121       -3.7774583907       -3.8456970228
 H       -22.4798501717       -4.3873229938       -3.1560427965
 H       -21.9154647695       -4.8815199293       -4.6362355340
 H       -22.3335293891       -7.2322205887       -2.7139841287
 H       -20.7348414059       -8.0438458423       -2.8524340250
 H       -21.6801223326       -7.6401832578       -4.2422621653
 Na      -18.1467496365       -8.0542981670       -1.8158086648
 Na        5.9572659679        4.1857182257      -14.4834000408
