232

 C         0.8085315961        4.8053845150      -20.7576011743
 C        -0.5899591447        4.3739085644      -20.3783644941
 O        -0.6772430526        3.1693866194      -20.1722284267
 C        -1.8272321533        5.4457800827      -19.9271849098
 C        -3.1152309185        5.0244654786      -20.8397962109
 O        -3.4581546283        3.8548045337      -20.8799029470
 C        -3.9527132380        6.0554124493      -21.3969078910
 C        -5.3576161927        5.4629468326      -21.9302845537
 C        -6.3763254926        5.1833532642      -20.7623184609
 O        -6.0215223599        5.1427024076      -19.6062773291
 C        -7.7750004043        4.6784047965      -21.3338271052
 C        -7.8471555432        3.1307030388      -21.4015054628
 O        -7.9002013759        2.6057860691      -22.5262657198
 C        -7.8214041613        2.2784384484      -20.0199844217
 C        -7.1478122373        0.8876740482      -20.2325025417
 C        -5.5666882654        0.8789878625      -20.3209305889
 O        -4.8858742558        1.2627207347      -19.4031177010
 C        -4.8388459113        0.3331931981      -21.6052279576
 C        -3.4580276808       -0.3665726447      -21.1723818864
 O        -2.3868377092        0.0766188146      -21.5484705297
 C        -3.5053759110       -1.5523396013      -20.2533405553
 C        -2.1565571666       -1.8925046095      -19.5171572270
 C        -1.5374257003       -0.9724057774      -18.4668517237
 O        -1.6993630011        0.2073431783      -18.3742742794
 C        -0.3860238176       -1.7044445690      -17.6166366154
 C        -1.1011836724       -2.7822770802      -16.6390143109
 O        -1.9751277887       -3.5036399417      -17.0936426785
 C        -0.7204364619       -2.6670777627      -15.1646319060
 C        -1.4950917579       -3.7319727009      -14.3544284573
 C        -1.3250296434       -3.6267400860      -12.8759978015
 O        -0.3405036464       -3.1529659054      -12.3366888539
 C        -2.4699603461       -4.4393822029      -12.0476919780
 C        -1.9512955568       -4.7917022681      -10.5447853940
 O        -2.5715871953       -4.3618748642       -9.6266508307
 C        -0.6282821355       -5.5355602958      -10.3918265155
 C        -0.0725398733       -5.4796076111       -8.9431234095
 C        -0.5200335388       -6.5332043133       -7.9757174248
 O        -1.7180317217       -6.6691059810       -7.7744693327
 C         0.5263375784       -7.0659679223       -7.0497541174
 C         1.1309166834       -5.9907369713       -6.0029474975
 O         0.9138861787       -4.8035285716       -6.3198519317
 C         1.9623426914       -6.4296924732       -4.7770014794
 C         2.3905645041       -5.2113979452       -3.9331606437
 C         1.4314194659       -4.9294015190       -2.7788912476
 O         0.7931008934       -5.8251114156       -2.2699338114
 C         1.3021143466       -3.4210997924       -2.2219170667
 C         0.5224226512       -2.4808113025       -3.1681714485
 O         1.1056074141       -1.5535777590       -3.8072859532
 C        -0.9139824524       -2.7882060517       -3.2552249268
 C        -1.7374096829       -1.7122905017       -4.1544226891
 C        -1.6020577555       -1.9130516523       -5.6333590216
 O        -1.4460981246       -3.0367086660       -6.0293129525
 C        -1.9279065279       -0.8219180844       -6.6650310099
 C        -3.4718415440       -1.0142411405       -7.1956175172
 O        -3.7520058613       -2.0692861973       -7.7318067344
 C        -4.4554801945        0.0137824491       -6.8192383167
 C        -5.8934214740       -0.3629517877       -7.1538288587
 C        -6.6456489116       -0.6806679947       -5.8001583409
 O        -6.0654173664       -0.5766256032       -4.7471106192
 C        -8.0847056422       -1.2693465115       -5.7789954349
 C        -7.8936198664       -2.7939434324       -6.1928527461
 O        -8.6168212122       -3.2652984539       -7.0955828542
 C        -6.7632944205       -3.4942002033       -5.5119806209
 C        -7.1228730993       -4.9697145281       -5.5371740475
 C        -5.8675260319       -5.7805543052       -5.7813304545
 O        -4.8248137917       -5.3464521593       -6.2789565609
 C        -5.7180259313       -7.3264382632       -5.2014345311
 C        -5.9547765470       -7.2094748790       -3.6911386478
 O        -6.9722113184       -7.5791589199       -3.1253504946
 C        -4.8097995179       -6.5051837411       -2.8994343677
 C        -5.0134763788       -6.0619880921       -1.3600036202
 C        -5.6450943469       -4.6862721655       -1.1245700521
 O        -6.2359970971       -4.1146263951       -2.0173430463
 C        -5.5684979040       -4.0423090506        0.3938585261
 C        -4.7049520603       -2.7768998949        0.3196462440
 O        -3.4786735229       -2.9125169187        0.4420258488
 C        -5.3069586880       -1.3926478929        0.1341444389
 C        -4.2247584752       -0.2925027455        0.4263955776
 C        -4.3515362971        0.9881427831       -0.3951254861
 O        -5.3580154727        1.0509083904       -1.0891180362
 C        -3.2911340857        2.0929750030       -0.2893337214
 C        -2.3901417067        1.9696885385       -1.6093503383
 O        -2.2590204903        0.8594732257       -2.1504492245
 C        -1.6090509751        3.2524658420       -2.0819279152
 C        -4.0389643879        3.3519936125       -0.2519024306
 C        -2.3391500352        2.0504526195        0.9801708212
 C        -7.0350804220       -3.6522636895        0.7654970031
 C        -4.8916724837       -5.0419722412        1.3570108184
 C        -6.8217032596       -8.1714465068       -5.8709677234
 C        -4.3452981786       -7.8222293096       -5.6577643240
 C        -8.6797145144       -1.2650982057       -4.3168692424
 C        -8.9633437869       -0.4842003599       -6.7019777154
 C        -1.7090140712        0.5419220647       -5.9861121696
 C        -0.9790906710       -0.9903890335       -7.8888165544
 C         0.5524926636       -3.5425119821       -0.9082831089
 C         2.7206243808       -2.7415419585       -2.1758585925
 C        -0.0782814935       -8.3288874796       -6.1496956065
 C         1.7854396200       -7.5800554313       -7.8154153199
 C        -3.6723348012       -3.5356861862      -11.9137038205
 C        -2.8275873242       -5.7556177999      -12.6954519841
 C         0.5608198038       -2.3142330553      -18.7139362901
 C         0.4221427662       -0.6698655484      -16.8052968616
 C        -5.6811154108       -0.7725563055      -22.5040341380
 C        -4.4575396135        1.3883446905      -22.5698985427
 C        -8.8334641868        5.2041111659      -20.3021422491
 C        -8.0050047862        5.2731650262      -22.7197097495
 C        -2.1059278745        5.1212731328      -18.4176920066
 C        -1.3406861387        6.8460725794      -20.0534350906
 H         1.3205280130        4.1753108001      -21.5449182566
 H         1.3534990741        4.6723447076      -19.8143464558
 H         0.8196745337        5.8940261444      -21.0140446245
 H        -3.4158478685        6.6943120625      -22.1789447765
 H        -4.2418860558        6.7988158744      -20.7708628091
 H        -5.0836288193        4.5874518529      -22.5183160814
 H        -5.7756140781        6.2040131501      -22.7188880418
 H        -8.8747374550        1.9971297309      -19.7977412695
 H        -7.4888921776        2.8544059132      -19.1592437847
 H        -7.5115152726        0.4610495476      -21.1476723574
 H        -7.3244864985        0.1591806180      -19.4054366752
 H        -3.8392312477       -2.3936199391      -20.7417801109
 H        -4.3388560147       -1.3618539780      -19.5534082181
 H        -1.4206941825       -2.0025049935      -20.4168029908
 H        -2.1843609029       -2.9247303565      -19.1090464783
 H        -0.9173649574       -1.6696827338      -14.8272913838
 H         0.3637615299       -2.6848419460      -14.8779622437
 H        -1.1700925678       -4.8020634476      -14.5375530018
 H        -2.5772098373       -3.7365473696      -14.5174646584
 H         0.1621392201       -5.2903616855      -11.1186461377
 H        -0.7657271215       -6.6301008860      -10.5508324604
 H        -0.3163955635       -4.5670039525       -8.4784952862
 H         0.9883997601       -5.4678527155       -8.9551715034
 H         2.7826528976       -6.9456433862       -5.0969901670
 H         1.4231320178       -7.0104824229       -4.0778794258
 H         2.4482693282       -4.3476859502       -4.6007284905
 H         3.4756983610       -5.3926286989       -3.6177565139
 H        -1.3842536585       -2.7842425740       -2.2217138578
 H        -0.9567309732       -3.7864936937       -3.7988416982
 H        -1.4230575330       -0.7245848577       -3.8615381892
 H        -2.7189831768       -1.8427518659       -3.7447898526
 H        -4.3560635783        0.9169593379       -7.3734755403
 H        -4.2940809062        0.3415660797       -5.8445502710
 H        -6.0248962696       -1.2417418273       -7.7192856125
 H        -6.4647162818        0.4311880376       -7.6542170141
 H        -6.6082262661       -3.2428314748       -4.4271711981
 H        -5.8004320366       -3.2721623894       -5.9768262722
 H        -7.8033846194       -5.1894940990       -6.4426365559
 H        -7.6694405962       -5.2565433944       -4.5554201316
 H        -4.4789656937       -5.5346609880       -3.3877402551
 H        -3.8681294865       -7.1200964271       -2.9802751244
 H        -3.9710143236       -6.1332138180       -0.9328472708
 H        -5.7055490227       -6.8127737581       -0.8336540269
 H        -6.0983748837       -1.0316686331        0.8056550410
 H        -5.6284446798       -1.3861909491       -0.8907693062
 H        -3.1487190549       -0.7591218489        0.3873440310
 H        -4.2708769700        0.0086729797        1.4799838699
 H        -2.1964313449        3.4830914179       -2.9419622645
 H        -0.6042898919        2.9758500406       -2.4318312753
 H        -1.5461794094        4.0390946506       -1.3341627387
 H        -3.4717092343        4.1802053291       -0.6814411193
 H        -4.3701115927        3.8322901305        0.6868241651
 H        -5.0148957192        3.3046641539       -0.8238834043
 H        -2.9400897593        2.1359377968        1.9046367927
 H        -1.5669760036        2.8407208395        0.9564029652
 H        -1.9872244533        1.0516570780        1.1300799399
 H        -7.7042840250       -4.5360094045        0.9075299380
 H        -7.5144741019       -3.0273890449        0.0270276066
 H        -7.0708121299       -3.0701160765        1.5961913546
 H        -5.4209310019       -5.9864824457        1.3598340249
 H        -4.8465670618       -4.6799886115        2.3936729786
 H        -3.8575738990       -5.2087343076        0.9954128176
 H        -7.8298666532       -8.0479016474       -5.5253473770
 H        -6.6396301301       -9.2165403893       -5.7643432256
 H        -6.8761730104       -7.9440064684       -6.9972858517
 H        -4.1756860496       -7.6295268203       -6.6824401578
 H        -4.3078340219       -8.9478730186       -5.6521231158
 H        -3.4347285326       -7.4947986143       -5.1982124192
 H        -9.7302191724       -1.5039426317       -4.4129253277
 H        -8.6540505191       -0.1654582148       -4.0734182093
 H        -8.0830806681       -1.8219229740       -3.6586418217
 H        -8.5487261788       -0.4121572241       -7.6582390053
 H        -9.1231096035        0.4422475759       -6.1770568082
 H        -9.9670001946       -0.9683539158       -6.7240419543
 H        -2.1272412119        1.3852550316       -6.5964074658
 H        -0.6837090893        0.8210915794       -5.9705172695
 H        -2.2224756896        0.7140470171       -5.0102486876
 H         0.0130403749       -1.4230967565       -7.5595770870
 H        -0.8847245670       -0.0721286333       -8.3672461485
 H        -1.4382850284       -1.6024699575       -8.6601388345
 H         1.1269295069       -4.1625824656       -0.2389500746
 H        -0.4051997189       -4.0768992492       -1.1721151883
 H         0.3404705562       -2.5656296071       -0.4744326551
 H         3.2210607697       -3.0178540458       -3.1035368544
 H         3.3588620079       -3.1159024221       -1.3427737945
 H         2.5906557411       -1.7011325985       -2.0623654898
 H        -1.1491316820       -8.3872744350       -6.2609538355
 H         0.3051911438       -8.1891666814       -5.1969724049
 H         0.3738443970       -9.1683503634       -6.6922408109
 H         2.4698401572       -8.0221457781       -7.1815659928
 H         2.2378366443       -6.6782497517       -8.3194736152
 H         1.4439757136       -8.2049806588       -8.5674929776
 H        -4.5275323049       -4.1386508384      -11.5081836737
 H        -4.0192609894       -3.1203088503      -12.9223099367
 H        -3.4931552740       -2.7992984460      -11.1884101863
 H        -3.4285398706       -6.3212677678      -11.9475516887
 H        -1.9267086850       -6.4028404046      -12.9412421724
 H        -3.5444603594       -5.5137581835      -13.5230469816
 H         0.7205602670       -1.4845931974      -19.4381994612
 H         0.1410152254       -3.1147409466      -19.1839924636
 H         1.4168804701       -2.8285006779      -18.2555859032
 H         1.0885994277       -1.1025685075      -16.0910042820
 H        -0.2201318477       -0.0184109884      -16.1868257939
 H         0.9979620975       -0.0678540997      -17.4573598400
 H        -5.1004545680       -1.1578154968      -23.3145871503
 H        -6.5424657470       -0.4630128687      -22.9536922732
 H        -5.9908683172       -1.6696701838      -21.9029290188
 H        -3.4093272005        1.7037209811      -22.5446483948
 H        -4.8026555891        2.3747663728      -22.3694877317
 H        -4.5931540339        1.0799913982      -23.5247886170
 H        -8.3898222242        5.2987329121      -19.2706037356
 H        -9.7888600792        4.6009399531      -20.1577437535
 H        -9.1624987510        6.1786162494      -20.6948510305
 H        -7.5328084800        6.1997373949      -23.0670059426
 H        -9.1019836691        5.4413271977      -22.8542750496
 H        -7.6293546634        4.5769163428      -23.4989376424
 H        -1.1130185767        4.7830233976      -17.9705286422
 H        -2.8026445568        4.3357347725      -18.1848684565
 H        -2.4154761084        5.9956544797      -17.8475662204
 H        -0.8078204687        6.9471372270      -20.9787488980
 H        -0.4951590088        7.1031710828      -19.4134889683
 H        -2.0571412081        7.6233093538      -19.8479803388
 Na       -2.5801834021        2.1002088392      -19.6631080533
 Na       -2.8065190247       -4.2815288440       -7.4046742600
