232

 C         0.3472244520        4.8685909457      -21.3334638570
 C        -0.7638137319        4.3306026432      -20.5112439208
 O        -0.9768059186        3.1364638546      -20.3560771011
 C        -1.9388442880        5.3668268140      -19.8242122122
 C        -3.3177563057        5.0170675275      -20.5850053660
 O        -3.6799208363        3.8703850177      -20.5049286113
 C        -4.0040022778        6.1271024134      -21.2462916808
 C        -5.4312717691        5.8420039353      -22.0195027212
 C        -6.5021272777        5.2996291256      -21.0388101127
 O        -6.1441260502        4.9514572544      -19.8951181509
 C        -7.8527503224        4.6791394476      -21.5154587039
 C        -7.6429879472        3.1231188711      -21.6149161976
 O        -7.4948544337        2.6357416549      -22.7611040570
 C        -7.7154724624        2.3325082797      -20.2737413542
 C        -7.3085556552        0.8556233851      -20.4645800938
 C        -5.7176878867        0.8345521089      -20.5270875377
 O        -5.1431408616        1.1961671943      -19.5123149628
 C        -4.9284800549        0.2385211722      -21.7167485487
 C        -3.4982388271       -0.1339757168      -21.2209780713
 O        -2.5353716745        0.5918761317      -21.3756886644
 C        -3.4948594533       -1.4018110715      -20.2613451883
 C        -2.1344702460       -1.8714792195      -19.7620458759
 C        -1.6046684180       -1.1061980013      -18.5859745662
 O        -2.1703921530       -0.0886769979      -18.3177120678
 C        -0.4670857160       -1.6892849480      -17.6139966597
 C        -1.1509596365       -2.6938286882      -16.5248420620
 O        -1.8015865097       -3.5878504011      -16.9633655802
 C        -0.8396674413       -2.5987106585      -15.0606062470
 C        -1.6199836683       -3.6782554645      -14.3460626450
 C        -1.5735226370       -3.4550302834      -12.8677689261
 O        -1.0725880080       -2.4279674277      -12.4708592446
 C        -2.3647110663       -4.2913174303      -11.9385345375
 C        -1.7844449055       -4.4431842988      -10.5246912033
 O        -2.3836076390       -3.9158934013       -9.5441449124
 C        -0.4886980574       -5.1301480699      -10.3368381380
 C         0.0971311239       -5.2758423414       -8.8725595627
 C        -0.5173721869       -6.3286192473       -7.9336458917
 O        -1.7174242653       -6.4498835574       -7.8065801438
 C         0.3987853145       -7.1499049953       -6.9743290232
 C         1.0282668469       -6.0765601278       -5.9409776822
 O         0.6841793403       -4.9474003005       -6.1931734623
 C         2.0737638291       -6.4527731829       -4.8874254313
 C         2.5271637324       -5.1921429742       -4.1109404174
 C         1.6862369013       -4.8854923401       -2.9061016725
 O         0.8917073401       -5.6778278931       -2.4715226790
 C         1.7590526274       -3.4122108911       -2.2238821321
 C         0.7061582950       -2.6447819775       -3.0618645462
 O         1.1756231583       -1.8830439004       -3.8781566157
 C        -0.7671095721       -2.9831868137       -2.9645492553
 C        -1.8423322355       -2.2379556258       -3.7809607566
 C        -1.7429073422       -2.3172813323       -5.3576196487
 O        -1.7830007036       -3.4365761826       -5.8058573043
 C        -1.9211833912       -1.1268445567       -6.2992984549
 C        -3.3622433104       -1.1507981797       -6.9416311599
 O        -3.6757682175       -2.1925613372       -7.5175888817
 C        -4.2906007183        0.0566336878       -6.8702412839
 C        -5.7303186163       -0.2769423978       -7.2246415636
 C        -6.7312133395       -0.3385153077       -5.9977845650
 O        -6.2529361023        0.0773284603       -4.9685210541
 C        -8.1531726630       -0.9782922766       -6.0985626460
 C        -7.9322679695       -2.5002501922       -6.1952296303
 O        -8.4895779715       -3.2152177660       -7.0452099206
 C        -6.7928528427       -3.2634105930       -5.3805009595
 C        -6.8520846096       -4.7674639614       -5.3900832125
 C        -5.5854416434       -5.5604294443       -5.5736917218
 O        -4.6716338582       -4.8652738827       -6.0646390393
 C        -5.5423416167       -6.9916147504       -5.2170524388
 C        -5.5585641723       -6.9783062876       -3.6320593489
 O        -6.4418854942       -7.4256053722       -2.9731304218
 C        -4.4176640411       -6.2562674306       -2.9121903430
 C        -4.6938858017       -6.1061496784       -1.3856348211
 C        -5.2782218707       -4.7058489346       -1.0663029730
 O        -5.5193917426       -3.9300977355       -1.9156025899
 C        -5.5610169544       -4.3644055481        0.4647407888
 C        -4.5961019641       -3.0561652214        0.4739570586
 O        -3.4035626023       -3.2152228470        0.4766998483
 C        -5.2434154708       -1.6548583419        0.3849792990
 C        -4.1583072082       -0.6094190419        0.4573525414
 C        -4.4818993011        0.7024235288       -0.3278939035
 O        -5.4015656935        0.7570513920       -1.1036333643
 C        -3.4569641983        1.8562360875       -0.3811586070
 C        -2.4656474569        1.7471688904       -1.5819207105
 O        -2.0959312618        0.6853152364       -2.0475345983
 C        -1.9526132753        3.0565008546       -2.1197382349
 C        -4.3172907964        3.0982883113       -0.4552046439
 C        -2.5683546492        1.9521006024        0.9586050438
 C        -7.0484049202       -4.0210795487        0.6595562546
 C        -5.0615050263       -5.5706966445        1.4156418897
 C        -6.7070604444       -7.8297534096       -5.7090665305
 C        -4.2081238857       -7.6426919427       -5.7063746816
 C        -8.9839761673       -0.7440215652       -4.7611012487
 C        -8.8740815291       -0.3141219893       -7.2880297708
 C        -1.5246285055        0.1972704164       -5.6797477695
 C        -0.9011286837       -1.3088737887       -7.6090056312
 C         1.3701721829       -3.5307201151       -0.7121592938
 C         3.1445935169       -2.8097178924       -2.3904381647
 C        -0.4082629478       -8.1033331245       -6.1884105342
 C         1.4860510773       -7.9043694082       -7.7266875512
 C        -3.8672248325       -3.6004409055      -11.8620062667
 C        -2.6798597743       -5.7544794502      -12.4153416495
 C         0.5601411851       -2.5557268103      -18.4016260847
 C         0.1411661757       -0.4545274453      -16.9931849430
 C        -5.5376582953       -0.9335954336      -22.5643635832
 C        -4.6716632547        1.3905879922      -22.7296588800
 C        -8.8386130157        5.0370367176      -20.4208152490
 C        -8.2676380566        5.2302634078      -22.9720645501
 C        -2.1051563552        5.1677488427      -18.2522811692
 C        -1.4643542322        6.8797108854      -20.1376295911
 H         1.1476332483        4.0547986411      -21.4298495770
 H         0.6962262972        5.7740547264      -20.8856831110
 H        -0.0603733067        5.0902675849      -22.3218042828
 H        -3.3581444172        6.5369385702      -22.0908212516
 H        -4.0847412450        7.0150873957      -20.7753872122
 H        -5.1457740447        5.1334935102      -22.8203911322
 H        -5.6291679244        6.8482804435      -22.5159037748
 H        -8.7279998923        2.2772135078      -19.8838952615
 H        -7.0445521989        2.7805078249      -19.5377153034
 H        -7.7939352943        0.3589318186      -21.2571570415
 H        -7.5368624934        0.2529906791      -19.5857212198
 H        -4.0812276539       -2.1382557655      -20.6322339135
 H        -3.9748673508       -1.0525649089      -19.3298162692
 H        -1.3659283511       -1.6908249778      -20.5936441426
 H        -1.9355406681       -2.9481775612      -19.6178224956
 H        -0.9900791746       -1.6163771875      -14.6517095272
 H         0.2842625918       -2.6983621336      -14.9884637944
 H        -1.1287734824       -4.6496205367      -14.5940115138
 H        -2.6659264324       -3.6653889152      -14.6316678492
 H         0.2807291726       -4.5628811066      -10.8344601230
 H        -0.4768856423       -6.1340798760      -10.7568661713
 H         0.1033184502       -4.3131247082       -8.3623503316
 H         1.1847140537       -5.4710902899       -8.9045205117
 H         2.9063298303       -6.8715899876       -5.4244698389
 H         1.7338567927       -7.1994058087       -4.1656992960
 H         2.5028272291       -4.4041900734       -4.8757937229
 H         3.6429610650       -5.2239659811       -3.8908454491
 H        -0.9491360154       -2.8994123144       -1.8961140806
 H        -0.7923434425       -4.0309568270       -3.2192946523
 H        -1.9351120143       -1.2890865761       -3.2600515295
 H        -2.8189560113       -2.6704787901       -3.6628038924
 H        -3.9275189173        0.7566109876       -7.6852213811
 H        -4.1665503674        0.5983760580       -5.9979266994
 H        -5.7680163638       -1.2770514962       -7.7651689356
 H        -6.2916621416        0.3713500976       -7.9376456616
 H        -6.6747929723       -2.8818730062       -4.3390242058
 H        -5.8265016542       -2.9444215137       -5.7425668227
 H        -7.4541577761       -4.9963930314       -6.2738164234
 H        -7.4917597403       -5.1689129101       -4.5642118838
 H        -3.9031625124       -5.3980325315       -3.3662215183
 H        -3.5365584069       -6.9474987104       -2.9777971119
 H        -3.7667494000       -6.2936091645       -0.7557735457
 H        -5.3727692830       -6.9943125706       -1.1202188375
 H        -5.8300861336       -1.5890434410        1.3383118320
 H        -5.8730644678       -1.4604575296       -0.4742359068
 H        -3.1692816135       -1.1148070527        0.0612667305
 H        -3.8655010963       -0.3499125762        1.4833657936
 H        -2.8862006522        3.4835713375       -2.3849729283
 H        -1.3295233502        2.9581374920       -3.0336303759
 H        -1.4109851561        3.6685860649       -1.3899885463
 H        -3.8443990171        3.9329758190       -0.0582329751
 H        -5.2518619223        3.0775049113        0.1538312333
 H        -4.4975396862        3.5505935600       -1.4606750721
 H        -3.2854855307        1.6502626065        1.7301362297
 H        -2.2816947899        2.9931388397        1.0777384575
 H        -1.6600793901        1.3660246260        0.9739516780
 H        -7.6925536304       -4.9159389814        0.5619620805
 H        -7.4590329804       -3.3591379955       -0.0962266203
 H        -7.1765610072       -3.5572834925        1.5619587628
 H        -5.5245707267       -6.4931842490        0.9760300467
 H        -5.4883059109       -5.6121940831        2.4306956832
 H        -3.9426494072       -5.6279679613        1.3542297794
 H        -7.6409286475       -7.3577535663       -5.4702752877
 H        -6.8344762374       -8.8464612474       -5.3416140629
 H        -6.7340383042       -7.8419775570       -6.8156277757
 H        -4.2512440965       -8.2193816766       -6.5742391446
 H        -3.7368788438       -8.2907450713       -4.9371562403
 H        -3.4410468192       -6.9566184660       -5.8788133115
 H        -9.2535278175        0.3312668822       -4.6103464634
 H        -8.2571416333       -1.0301034923       -3.9370735773
 H        -9.6994447522       -1.5165186333       -4.6942528030
 H        -8.3901844504       -0.6262028182       -8.1689433153
 H        -9.0151328417        0.7173405637       -7.1080637466
 H        -9.8212348685       -0.8955066886       -7.4831639466
 H        -1.5646401667        1.0367480416       -6.4565378737
 H        -0.5194706665        0.1241705368       -5.3022664344
 H        -2.0173738828        0.6347946305       -4.7612047145
 H         0.0822447083       -0.8595896745       -7.3218297881
 H        -1.4402654923       -0.7831775118       -8.3888896779
 H        -0.6389255208       -2.3679758718       -7.8832354190
 H         2.1923411528       -3.9269828467       -0.2331689803
 H         0.5412875638       -4.1542769658       -0.5660049643
 H         1.2724409861       -2.5263793315       -0.3407905949
 H         3.3114884730       -2.4489523348       -3.4796961774
 H         3.8952914533       -3.5835814798       -2.3280211493
 H         3.2265691775       -2.0163108433       -1.7353289510
 H        -0.9472001591       -7.5119415499       -5.4154431958
 H         0.3769473065       -8.6796653427       -5.6846672910
 H        -0.9930381385       -8.6533647823       -6.9553014543
 H         1.8232702994       -8.5711786371       -6.9971567899
 H         2.3480075176       -7.2403674479       -7.9631815393
 H         1.1270726553       -8.3272518306       -8.6777386877
 H        -4.4501725714       -4.1444608468      -11.0913740883
 H        -4.3686206086       -3.5530224905      -12.8680103004
 H        -3.8028314088       -2.5994826475      -11.5900091377
 H        -3.1063915380       -6.3328154838      -11.5722528933
 H        -1.8033744781       -6.2911500614      -12.8081157080
 H        -3.4172652437       -5.6675346251      -13.1792562768
 H         1.1189867456       -1.8433624778      -19.1237189821
 H         0.0671643492       -3.3024400613      -18.9716861948
 H         1.2273378064       -3.0383716219      -17.7013894821
 H         0.9412160752       -0.5970007890      -16.2335910208
 H        -0.7437332218        0.1114109552      -16.5855873976
 H         0.6231973554        0.2817420593      -17.6868554624
 H        -4.7861776084       -1.2768789796      -23.2209821059
 H        -6.2945469006       -0.7138867568      -23.2889159482
 H        -6.0656165498       -1.6772066758      -21.9962544741
 H        -4.3686408506        1.0068473006      -23.7489966956
 H        -3.9516363604        2.1384603130      -22.5463613984
 H        -5.6688889082        1.8794126234      -22.9551803912
 H        -8.5745999948        4.6733064384      -19.4968296224
 H        -9.8815381738        4.7749122038      -20.6594181954
 H        -8.8387898465        6.1203261792      -20.3216776882
 H        -8.9489070624        6.0326365798      -22.8787553904
 H        -8.8014235165        4.4626534638      -23.5425839138
 H        -7.4871743299        5.6384782991      -23.6498406934
 H        -1.3438183493        5.8840953543      -17.8127994957
 H        -1.7928316827        4.1096098014      -17.9338262992
 H        -3.1162280391        5.2300343299      -17.8321043103
 H        -1.2208524353        7.0675867763      -21.1813490952
 H        -0.6193466184        7.2175387102      -19.5380939771
 H        -2.2433378045        7.5624808570      -19.8317710948
 Na       -2.7930144657        1.9590872990      -19.6027082295
 Na       -2.8159901005       -4.6607164806       -7.3705676854
