232

 C        -0.2877032986        4.7932123070      -21.8776024310
 C        -0.9982126649        4.4048767513      -20.5042946342
 O        -0.9708004625        3.2270106119      -20.1349468099
 C        -2.0257869018        5.4232564795      -19.8112948738
 C        -3.3778507066        5.0061585152      -20.5495349284
 O        -3.7584945187        3.8806643605      -20.5325716093
 C        -4.1810238462        6.1716481297      -21.1721788493
 C        -5.4813779159        5.6411021605      -21.9098693348
 C        -6.6272754745        5.2224959971      -21.0083963946
 O        -6.5341020758        5.4048622598      -19.8139836405
 C        -7.9810776284        4.7710175426      -21.6977771701
 C        -7.7122478071        3.2437397901      -21.8325980346
 O        -7.3619263443        2.8850626355      -22.9383949769
 C        -7.7984034416        2.2941255976      -20.6252237010
 C        -7.3071723922        0.8892437302      -21.0044728633
 C        -5.7735955037        0.8968733202      -20.8031001065
 O        -5.2865597615        1.5401586194      -19.8657028359
 C        -4.8493719102        0.0255446433      -21.7861835762
 C        -3.4818604547       -0.3977280916      -21.2106213505
 O        -2.5777850612        0.4340817265      -21.2438864451
 C        -3.2754918142       -1.7445941123      -20.5154011638
 C        -1.9790932779       -1.9301481707      -19.8240200189
 C        -1.6575318731       -1.0287124190      -18.6619195616
 O        -2.2211407287        0.0250250371      -18.3143815020
 C        -0.5204082667       -1.6263688733      -17.6315905971
 C        -1.2823720996       -2.6251718399      -16.6669227970
 O        -1.9005651714       -3.5194400551      -17.2058823667
 C        -1.2399316488       -2.3497776025      -15.1240644072
 C        -1.6233293811       -3.5371501614      -14.3284693019
 C        -1.7957918740       -3.2279807480      -12.7910402192
 O        -1.4542869965       -2.1637152252      -12.3960404345
 C        -2.5050959028       -4.3240890595      -11.8735833167
 C        -1.7668870184       -4.2289655470      -10.5155532638
 O        -2.1746174650       -3.5964522326       -9.4965573260
 C        -0.5743972812       -5.1017684525      -10.3342430510
 C         0.0868179574       -5.0613367534       -8.9053250670
 C        -0.4646266111       -6.2471944512       -8.0885893434
 O        -1.6206205184       -6.5330386579       -8.3029369387
 C         0.3138703649       -6.9544625695       -6.9292145749
 C         1.1315918219       -5.8956189805       -5.9949389142
 O         0.8251454210       -4.7778868196       -5.8672728597
 C         2.2451325990       -6.5397468192       -5.1993179909
 C         2.8756434049       -5.5516876293       -4.1577106492
 C         1.8749779997       -5.0693300840       -3.1610681561
 O         0.8873288534       -5.7106328068       -2.8780525227
 C         2.0032551132       -3.5899365121       -2.4818437391
 C         0.8153846832       -2.7994138361       -3.1564463807
 O         0.9801743054       -1.9897327770       -4.0021968851
 C        -0.6225544994       -3.0548329216       -2.5831733988
 C        -1.7424509510       -2.1854726863       -3.3022282395
 C        -1.8579458272       -2.6045110874       -4.7684652934
 O        -1.8613075402       -3.7959440063       -5.0350791838
 C        -1.9567116797       -1.3886180715       -5.8681871447
 C        -3.4007981110       -1.3606283839       -6.5542209829
 O        -3.9981965695       -2.3749905460       -6.8529703640
 C        -4.1631653267       -0.0142145625       -6.6692780307
 C        -5.5716430248       -0.1156946481       -7.2886524300
 C        -6.5783159195       -0.0707805954       -6.1155236030
 O        -6.2989557505        0.7250079186       -5.2480842569
 C        -7.9144399062       -0.7170135844       -6.3459920021
 C        -7.7872257117       -2.3236983305       -6.4008055312
 O        -8.3987788514       -3.0240818482       -7.1602873040
 C        -6.9377240810       -3.0398483751       -5.2610297316
 C        -7.0201830964       -4.5275674257       -5.2730768922
 C        -5.6814368508       -5.2185539654       -5.4786693887
 O        -4.7883909477       -4.6035136131       -6.0285980629
 C        -5.4239016670       -6.7113173077       -5.0297495237
 C        -5.1520510483       -6.9304350241       -3.4507871764
 O        -6.0422111566       -7.3604834131       -2.7553235718
 C        -3.9056815020       -6.3804569448       -2.8653083188
 C        -4.0622092845       -6.1678001786       -1.3663823455
 C        -5.0048712793       -4.9267300257       -1.1458634002
 O        -5.4563588790       -4.3245105086       -2.0458529540
 C        -5.3275825788       -4.5236961169        0.3813102819
 C        -4.3021943014       -3.3729434138        0.6498659762
 O        -3.2070122045       -3.5571818571        1.1244580050
 C        -4.8576998126       -1.9957893385        0.3389000437
 C        -3.8850935176       -0.8220090022        0.4130918471
 C        -4.4717487522        0.4111834402       -0.3070215051
 O        -5.4889514452        0.3588795819       -0.9799750467
 C        -3.6778914725        1.7076280340       -0.3508536610
 C        -2.6702032741        1.5269171233       -1.5281120617
 O        -2.3112119864        0.4315475948       -1.8561917449
 C        -2.1490855161        2.7532502112       -2.1418987942
 C        -4.6665287540        2.9058051751       -0.4802815600
 C        -2.7843009962        2.0196768343        0.8367739252
 C        -6.7732070648       -4.0775319470        0.2447811553
 C        -5.3256619939       -5.7474048617        1.4127319634
 C        -6.7065902984       -7.4876661081       -5.4988629789
 C        -4.1814044966       -7.2200638544       -5.7396205139
 C        -8.9561943077       -0.2978708174       -5.2873382412
 C        -8.4271119704       -0.2571626785       -7.7615309788
 C        -1.5889317206        0.0125772849       -5.3406114821
 C        -0.8655153364       -1.7840425007       -6.8408138647
 C         1.7986214232       -3.5797848287       -0.9326103365
 C         3.3466776938       -2.8779133157       -2.8772101126
 C        -0.6320860691       -7.8972552061       -6.0035573520
 C         1.4755467299       -7.8049689474       -7.6934498795
 C        -3.9838046304       -3.9842088775      -11.6934899954
 C        -2.4067880969       -5.7697109657      -12.4505831026
 C         0.5030410995       -2.3810676575      -18.5577226593
 C         0.1681767616       -0.3805347665      -16.9053018813
 C        -5.6386672477       -1.1925381259      -22.2630266752
 C        -4.6297326272        0.9221052359      -22.8957610594
 C        -9.1567954834        5.0078135871      -20.6307640988
 C        -8.2599455218        5.4248457727      -23.0754732134
 C        -2.2392921803        5.0247899890      -18.2841565799
 C        -1.6621159083        6.8641435641      -20.0103742515
 H         0.6577674422        4.2826715577      -22.0857467365
 H        -0.1924603896        5.8528984697      -21.8757748724
 H        -0.9336712616        4.5206182793      -22.6601857208
 H        -3.5699447448        6.9270224027      -21.7115126652
 H        -4.5775140282        6.8619972119      -20.4940616493
 H        -5.1392163993        4.9439438649      -22.6813429074
 H        -5.9304850015        6.6068806903      -22.2822434995
 H        -8.8580120778        2.1787966288      -20.3898331082
 H        -7.2127467474        2.6094813306      -19.7454541954
 H        -7.5854235246        0.5360922537      -21.9605941777
 H        -7.6293759746        0.0593148605      -20.3858154287
 H        -3.2675151530       -2.5454501813      -21.1752252483
 H        -4.0950881353       -1.9233865622      -19.7866856419
 H        -1.1436805407       -1.9554304426      -20.5333071080
 H        -1.8737406478       -2.9600130926      -19.4738985784
 H        -1.9835910450       -1.5939360120      -14.9323802787
 H        -0.2104671290       -1.9696761098      -14.9723762388
 H        -0.8701459689       -4.3050469008      -14.5460328778
 H        -2.5783274273       -3.8254973515      -14.7172332441
 H         0.1765757855       -4.7587343573      -11.0144883341
 H        -0.7937640128       -6.1444157168      -10.4809213749
 H        -0.2173584953       -4.1182127833       -8.3271886534
 H         1.2396216158       -4.9621995292       -8.9472533927
 H         3.0678075839       -7.0788295650       -5.7823104831
 H         1.7718554347       -7.2883632844       -4.5667167671
 H         3.3975496546       -4.7853694450       -4.7128653522
 H         3.7312528305       -6.0460997520       -3.6599907973
 H        -0.5769517664       -2.8131328162       -1.5537941052
 H        -0.9094035707       -4.0528740442       -2.5940604880
 H        -1.4591302681       -1.1586262173       -3.1436808538
 H        -2.6031305940       -2.1817685414       -2.6604418391
 H        -3.5176118605        0.7101041961       -7.3255676745
 H        -4.1843976471        0.3885171081       -5.6765358013
 H        -5.7958887661       -1.1606494966       -7.8160348796
 H        -5.7244877553        0.6150873637       -8.1359879495
 H        -7.1783827615       -2.6523764571       -4.2441014986
 H        -5.9107769872       -2.7098118588       -5.2873461601
 H        -7.6912915381       -4.8447954389       -5.9761394921
 H        -7.5355501573       -4.9126847248       -4.3988854574
 H        -3.4637583310       -5.5149665845       -3.3104454255
 H        -3.0416334850       -7.0229865624       -3.0395032531
 H        -3.1156365724       -6.0222234533       -0.8608065427
 H        -4.3822220816       -7.0979452760       -0.8893300131
 H        -5.8424869897       -1.8700721504        0.8517042464
 H        -5.1528226542       -2.0440310374       -0.7062598464
 H        -2.9835143801       -1.0779624340       -0.2206555652
 H        -3.5572361853       -0.6628553109        1.4047853901
 H        -3.0029751461        3.0724326517       -2.7336994970
 H        -1.2549770043        2.5278210678       -2.7759819070
 H        -1.9298549139        3.6007403329       -1.4773775602
 H        -4.3639641202        3.7286453672       -1.0128521343
 H        -5.0811084108        3.1902491317        0.4674898290
 H        -5.5199393819        2.6441097875       -1.1216412225
 H        -3.4704259103        2.1242152798        1.6562664734
 H        -2.3863222219        3.0258660391        0.6826194543
 H        -1.9368849634        1.3590773705        0.8823447020
 H        -7.4997556054       -4.8901016438        0.1316966321
 H        -6.9256760631       -3.3905747161       -0.6218727439
 H        -7.0792123092       -3.6389121374        1.1971290610
 H        -6.1440782965       -6.4292802539        1.1075078026
 H        -5.3480166609       -5.3952093982        2.4092866605
 H        -4.3813470932       -6.2508569190        1.2900193527
 H        -7.6860675227       -7.3523581687       -5.0738387781
 H        -6.4589135503       -8.5699332352       -5.5000715324
 H        -6.8006157958       -7.4143398318       -6.5478678726
 H        -3.9076403422       -6.7792155276       -6.6976346374
 H        -4.2830821487       -8.3345191400       -5.8811029784
 H        -3.2853594379       -7.2186933225       -5.1423399105
 H        -8.3541195401        0.3217530823       -4.5578265408
 H        -9.4769899774       -1.0863823619       -4.7133087062
 H        -9.7150170154        0.3229440336       -5.7719407684
 H        -7.8857589765       -0.5862430432       -8.7016545425
 H        -8.3572036451        0.8320152667       -7.7674913150
 H        -9.5089756868       -0.6105173416       -7.8054367831
 H        -1.6508338930        0.8579491684       -6.0427735456
 H        -0.5869947622        0.0366241414       -4.9779584082
 H        -2.0742448425        0.3430916264       -4.4417630642
 H         0.0355523319       -2.1710760674       -6.3526835189
 H        -0.5694193444       -0.8825345234       -7.4324439224
 H        -1.2846540678       -2.6264070117       -7.4014558124
 H         2.7205323283       -3.8765267377       -0.4701302492
 H         1.0724323239       -4.3039981976       -0.7485902732
 H         1.5231927952       -2.5365270128       -0.6283654830
 H         3.4683286636       -2.8748592995       -4.0397210201
 H         4.2143503965       -3.3597052158       -2.4251966345
 H         3.3649263267       -1.8303959665       -2.6484512911
 H        -0.4129155474       -7.5166534874       -5.0018731548
 H        -0.4054400482       -8.9578761430       -6.2210650326
 H        -1.5982962538       -7.6747803567       -6.4414737989
 H         2.1730052472       -8.3224620929       -6.9980363400
 H         1.9252626805       -7.1602460479       -8.4208640165
 H         0.9284108728       -8.7190606515       -8.1892876171
 H        -4.4041285092       -4.8091751168      -11.1474260719
 H        -4.5071396404       -3.8913200414      -12.6377735267
 H        -4.1150689647       -3.0683328145      -11.1552730001
 H        -2.8689677187       -6.4353936765      -11.7356513917
 H        -1.4380244169       -6.0575829803      -12.7326182875
 H        -2.9510247015       -5.8197356111      -13.3178416263
 H         0.7707411664       -1.7158273610      -19.4097964481
 H         0.1145504820       -3.3451917282      -18.9021276998
 H         1.4203448598       -2.3476521843      -18.1185918251
 H         1.1151821668       -0.6577169416      -16.4047826496
 H        -0.4555810011        0.0695738248      -16.1435263417
 H         0.3251317155        0.4688614053      -17.6168395490
 H        -5.0159373030       -1.9385516342      -22.8006582310
 H        -6.4288557295       -0.9709872533      -23.0927572506
 H        -6.1526296575       -1.7840204483      -21.5772110035
 H        -3.8859905023        0.4905233589      -23.6039987162
 H        -4.3436117659        1.9128872657      -22.5635181816
 H        -5.6175940807        1.2706899037      -23.4395331399
 H        -8.8630855338        4.7701632061      -19.6873804275
 H        -9.9944409159        4.3920082892      -20.9213638582
 H        -9.5075026906        6.0251227317      -20.5333155727
 H        -7.6957141386        6.2870573361      -23.1688633309
 H        -9.2575490324        5.7193463918      -23.3074839838
 H        -7.9831601132        4.7004809486      -23.8609078755
 H        -1.4023612877        4.4063881321      -18.0454142974
 H        -3.2079553544        4.4534067660      -18.0871429346
 H        -2.1194706298        5.8894947142      -17.6611675300
 H        -1.8440869156        6.9877484049      -21.0424080011
 H        -0.6629671712        7.1095578482      -19.6823544602
 H        -2.3761010697        7.5602557781      -19.5950301742
 Na       -3.0110212936        1.8900035271      -19.5112870418
 Na       -2.7478373215       -4.1270083534       -7.1433043186
