232

 C        -0.5457777678        4.8247538653      -21.7816968190
 C        -1.1325472382        4.3207861252      -20.4846412669
 O        -0.9678983354        3.1167240140      -20.1399087414
 C        -2.0359925003        5.3320481105      -19.8212393256
 C        -3.4234983598        4.9727251926      -20.4414300994
 O        -3.7593646058        3.8415865123      -20.7343202479
 C        -4.2114598737        6.1085617782      -21.0673420841
 C        -5.4666588869        5.7038647448      -21.8961041395
 C        -6.6504570448        5.5098565968      -21.0196553413
 O        -6.6681211588        5.5377547374      -19.8172748272
 C        -7.9928375221        4.7925517786      -21.7452294728
 C        -7.6878111925        3.2264344397      -21.9880483827
 O        -7.2613107416        2.8057554094      -23.0048361887
 C        -7.7822755455        2.3416864064      -20.7607887436
 C        -7.3666676843        0.8954070906      -20.9948048291
 C        -5.8763116142        0.7393949896      -20.8602791236
 O        -5.3342618001        1.4897608707      -20.0493919287
 C        -4.8527131250       -0.0383759483      -21.8196386772
 C        -3.4832080115       -0.2593187679      -21.0830602077
 O        -2.5471378421        0.4913733726      -21.1919275758
 C        -3.3475896550       -1.6627511069      -20.4190545399
 C        -2.0090135696       -2.0368111713      -19.7595308108
 C        -1.6236563114       -1.0776951530      -18.6269543007
 O        -2.1750335868        0.0315086608      -18.4812141243
 C        -0.4944241761       -1.5427532622      -17.7255997485
 C        -1.2647034297       -2.4963221833      -16.6654589425
 O        -1.8283677360       -3.5066728016      -17.0461852403
 C        -1.3155183517       -2.2291483393      -15.1785282880
 C        -1.7890345878       -3.5472387219      -14.4185306213
 C        -1.8846912374       -3.2140763813      -12.8713682638
 O        -1.5262785822       -2.1184232548      -12.4968367764
 C        -2.5017368840       -4.3596902862      -11.8754979276
 C        -1.7157718654       -4.2954842661      -10.3947343722
 O        -2.2531849866       -3.6779821191       -9.5320697004
 C        -0.4108248218       -5.2176382005      -10.2469805382
 C         0.1761530691       -5.0535768651       -8.8726471445
 C        -0.5299651908       -6.0564899932       -7.9916056181
 O        -1.6519578814       -6.4774027932       -8.2340021842
 C         0.3182796078       -6.8185949317       -6.9412780691
 C         1.1505650299       -5.9520173986       -5.9828874929
 O         0.8613484858       -4.7345576277       -6.0317829784
 C         2.3393007721       -6.5462460526       -5.2353763684
 C         2.8770936648       -5.5462760550       -4.1463603681
 C         1.8224312080       -5.0732747612       -3.1841660344
 O         0.8442094531       -5.7916191953       -2.8950138450
 C         1.9555443053       -3.6623772196       -2.6090104751
 C         0.7796170267       -2.7827311516       -3.1573008933
 O         0.9521725721       -1.9852781116       -4.0607210369
 C        -0.5807155938       -3.1111347183       -2.5523538639
 C        -1.6727353812       -2.2743794568       -3.1884112513
 C        -1.9710884715       -2.5026177312       -4.6310497008
 O        -2.0466065938       -3.6672821792       -5.0192772531
 C        -1.9471697448       -1.3394488815       -5.6628221235
 C        -3.3377401485       -1.2405709822       -6.3635462934
 O        -3.8376203212       -2.2471896006       -6.7916541170
 C        -3.9928627642        0.1251686431       -6.7153267496
 C        -5.4279779926       -0.2177223423       -7.2427018516
 C        -6.6072305948        0.0398544192       -6.1875685231
 O        -6.4165442650        0.7420379279       -5.2222842067
 C        -7.9161346701       -0.6477668521       -6.4421867964
 C        -7.7677925898       -2.3110913423       -6.4066618489
 O        -8.3309293045       -2.9663804050       -7.2143210670
 C        -6.9015598977       -2.8967468835       -5.2435220266
 C        -6.9889455678       -4.4107009519       -5.0838917678
 C        -5.6516729177       -5.1727623937       -5.3281582931
 O        -4.8597818517       -4.5723000069       -5.9870735586
 C        -5.4579018307       -6.7130386694       -5.0710820990
 C        -5.1972122401       -6.7423949199       -3.4667353571
 O        -6.0057869758       -7.3380576996       -2.7644638585
 C        -3.7710130708       -6.4107918937       -2.9790274620
 C        -3.8850460096       -6.1796011750       -1.4459944209
 C        -4.8852866679       -5.0683850702       -1.1359317088
 O        -5.4140248723       -4.5622547659       -2.1347087871
 C        -5.3149904205       -4.6138964372        0.3176643748
 C        -4.2748466572       -3.4376700828        0.7608960667
 O        -3.1693040618       -3.5953236798        1.2949288593
 C        -4.7743707203       -2.0260297189        0.2940261757
 C        -3.8854968320       -0.8279566557        0.3888406458
 C        -4.5347002881        0.3389311538       -0.3341239806
 O        -5.6385130796        0.2436664472       -0.8728024065
 C        -3.6724042553        1.6936375225       -0.3046053096
 C        -2.6708493898        1.4980909346       -1.5569519902
 O        -2.2991139188        0.3750814228       -1.8546676648
 C        -2.1749229196        2.8114157457       -2.2561541858
 C        -4.7079782749        2.8394622592       -0.5145211220
 C        -2.7686801221        2.0610062534        0.8840583410
 C        -6.8335206379       -4.0871837535        0.3324778675
 C        -5.3498051159       -5.7752819147        1.3038008065
 C        -6.6875506597       -7.4914544504       -5.3765878324
 C        -4.2256792611       -7.1374423888       -5.8380236638
 C        -8.9521423387       -0.3605160918       -5.3865612932
 C        -8.4090450198       -0.2236985209       -7.8613386777
 C        -1.4793667491       -0.0317239881       -5.1809538418
 C        -0.8257574536       -1.8496018106       -6.7453989842
 C         2.0375228292       -3.7015696038       -1.0385940309
 C         3.2805283868       -2.9229921249       -3.0621265103
 C        -0.4988503191       -7.8214849140       -6.0818152244
 C         1.3291961640       -7.8047109319       -7.7681787188
 C        -3.9919045875       -3.9977328962      -11.6767136137
 C        -2.3344407597       -5.7432249588      -12.3607454294
 C         0.5351213192       -2.3291585575      -18.4652733924
 C        -0.0001070747       -0.3339396476      -16.9994786167
 C        -5.6701751510       -1.3731199219      -22.1435499087
 C        -4.6001091769        0.9077757903      -23.0563326422
 C        -9.2096466935        4.9258441012      -20.7498479334
 C        -8.4543162968        5.5161921917      -22.9940161745
 C        -2.1491570086        5.0667482284      -18.2475195211
 C        -1.7022538178        6.8431650983      -20.0335110209
 H         0.2790179695        4.2215641276      -22.0233061461
 H        -0.2809626347        5.9134211359      -21.6640499756
 H        -1.2495621246        4.6853602270      -22.6155078849
 H        -3.5373556110        6.8028679543      -21.5167028140
 H        -4.6426877469        6.8846215104      -20.2543874458
 H        -5.2038557347        4.6295328373      -22.1397659222
 H        -5.6744420813        6.3515085944      -22.7250372859
 H        -8.7480274092        2.3010563426      -20.3017374334
 H        -7.0374346677        2.7699846107      -20.0739505868
 H        -7.5962807700        0.5463986638      -21.9994362159
 H        -7.7874690951        0.1357972053      -20.4030232583
 H        -3.4454046439       -2.4151488620      -21.1937020632
 H        -4.0813588764       -1.8223212614      -19.7198362133
 H        -1.1676796156       -1.8448015743      -20.4683870796
 H        -1.7988061851       -3.1694924459      -19.6311911549
 H        -2.0669396241       -1.4210714615      -15.0469602292
 H        -0.3060118681       -1.9750462437      -14.9161413216
 H        -0.9468653521       -4.2158753331      -14.5828088187
 H        -2.7288550402       -3.9944222222      -14.8244556302
 H         0.3582868987       -4.8171186622      -10.9227645938
 H        -0.5288558660       -6.2768209455      -10.3752323925
 H         0.1264845602       -4.0325729680       -8.5105999728
 H         1.2330349324       -5.3106903912       -8.8092370980
 H         3.1238820390       -6.6275502063       -6.0032068800
 H         2.2276058065       -7.4826076754       -4.8558137032
 H         3.3127080738       -4.7222456585       -4.7766738074
 H         3.8161690963       -5.9595570492       -3.7024504456
 H        -0.6674214851       -3.0217049756       -1.4550675977
 H        -0.7621618902       -4.1990662741       -2.6980672685
 H        -1.6171521986       -1.2988049101       -2.7922570508
 H        -2.4821306127       -2.5720214694       -2.5603517138
 H        -3.4213243328        0.6488099138       -7.4837776041
 H        -4.0035717107        0.6901164287       -5.8361543901
 H        -5.5032705869       -1.1971670342       -7.7821476479
 H        -5.5883249485        0.4550495683       -8.0874917422
 H        -7.0277026470       -2.3978581146       -4.2925404389
 H        -5.8563548561       -2.6107898445       -5.4369646161
 H        -7.7509022671       -4.8836936994       -5.6913806046
 H        -7.4604509525       -4.6036795415       -4.1410617077
 H        -3.1995669929       -5.5839300994       -3.3951609297
 H        -3.0339688550       -7.2143030761       -3.2151521115
 H        -2.9385634517       -6.0910400200       -0.8273956316
 H        -4.2950574871       -7.1383109453       -0.9679443822
 H        -5.7263290154       -1.8834789474        0.8848633720
 H        -5.1975636512       -2.0582081175       -0.6971352313
 H        -2.8200860908       -1.0224273410        0.0434363414
 H        -3.8566039968       -0.5678503732        1.4973002410
 H        -2.7794865161        3.2875454435       -3.0677072363
 H        -1.1463173408        2.6577115670       -2.5413377504
 H        -2.1215395896        3.5393774445       -1.4398973224
 H        -4.3448558495        3.8652600621       -0.8972668445
 H        -5.3994431700        2.9882446684        0.3119519354
 H        -5.3592553395        2.6183433416       -1.3325470018
 H        -3.3670195926        1.8399161489        1.7244328525
 H        -2.6229439008        3.1362565922        0.9504892566
 H        -1.8190258639        1.5436618971        0.7554870526
 H        -7.5605897870       -4.7954126490        0.1845350280
 H        -6.9823388347       -3.2590893106       -0.3120954706
 H        -7.0111427927       -3.8036265135        1.4234036228
 H        -6.0687112378       -6.5287757238        0.8850136278
 H        -5.6398947197       -5.2867973648        2.2355702268
 H        -4.3612152017       -6.2208146505        1.5106604915
 H        -7.6424152953       -7.2834689676       -4.8674593859
 H        -6.4308007706       -8.5633741331       -5.2753057018
 H        -6.8902715711       -7.5106940664       -6.3991395097
 H        -4.1358605841       -6.7694720833       -6.8697766315
 H        -4.1155994683       -8.1630584652       -5.8518629256
 H        -3.3284329347       -6.8072076088       -5.3263538846
 H        -8.4666014276        0.0339648648       -4.4627853640
 H        -9.5610371510       -1.2001149962       -5.1378566990
 H        -9.6319190903        0.4720929185       -5.8534655847
 H        -7.7994337950       -0.6149726744       -8.7438964973
 H        -8.2145949002        0.8662398877       -7.9331911345
 H        -9.4276476340       -0.4267476173       -7.9553750869
 H        -1.3709003876        0.8086085925       -5.8863755039
 H        -0.4882533752       -0.0551322749       -4.6043597078
 H        -2.1037549701        0.3672134539       -4.3768700620
 H         0.1049206093       -2.1705469126       -6.2955649388
 H        -0.5745154588       -0.9324904402       -7.4011315774
 H        -1.2827258479       -2.6760941919       -7.2596650878
 H         3.0679820659       -3.7219698406       -0.7893412287
 H         1.6116764010       -4.6116246003       -0.7285789686
 H         1.5707770955       -2.8637352854       -0.6628653518
 H         3.2290254346       -2.5764393559       -4.0260318263
 H         4.1817823450       -3.5140861655       -2.8859325330
 H         3.4500896463       -1.9575626186       -2.4482578084
 H        -0.4020944719       -7.4166407208       -5.0656827887
 H        -0.2086658315       -8.8929744773       -6.2984309879
 H        -1.4295394312       -7.6590911487       -6.6014694253
 H         1.7475591284       -8.5877527618       -7.0910077375
 H         2.0625386680       -7.2949784028       -8.3345554321
 H         0.6861695109       -8.4063833425       -8.3661933087
 H        -4.3926896709       -4.7269826491      -10.9960175387
 H        -4.4995794930       -4.1518385143      -12.5831417650
 H        -4.2101574392       -2.9340093647      -11.3110595220
 H        -2.4961630350       -6.4105168341      -11.5443496318
 H        -1.3755236065       -5.8174480745      -12.7821298636
 H        -2.9857420756       -6.0436660101      -13.1689200321
 H         1.0054097382       -1.8286812984      -19.2400830919
 H        -0.0113185532       -3.2609957519      -18.7927631098
 H         1.3915959292       -2.4563211760      -17.8220649998
 H         0.8918648257       -0.6732911136      -16.3820074857
 H        -0.6846241311        0.1666464436      -16.2865089254
 H         0.3172125124        0.4796171105      -17.7224709654
 H        -5.0305708319       -2.1175074705      -22.5635915436
 H        -6.4281991045       -1.2661738500      -22.9160082334
 H        -6.0919226890       -1.9771120291      -21.3798324293
 H        -4.0097011652        0.3758852459      -23.7972595075
 H        -4.0872826882        1.8588445131      -22.7114647207
 H        -5.4607025798        1.4022157209      -23.4625741088
 H        -8.9242103817        4.3286761921      -19.8648375806
 H       -10.0994494255        4.5880402319      -21.1453182155
 H        -9.2971402709        5.8852980653      -20.3237394795
 H        -7.9051201014        6.4477960120      -23.1825232883
 H        -9.4684630631        5.8421899979      -22.9890312241
 H        -8.4043145554        4.8482272803      -23.8209122115
 H        -1.3819829002        4.3532979840      -17.9036062925
 H        -3.1783490867        4.6676030668      -18.0073580985
 H        -1.8789592120        6.0458100960      -17.7013348022
 H        -1.5801596727        7.0706197645      -21.0520289732
 H        -0.9063083059        7.1428429050      -19.4113275826
 H        -2.5983961460        7.3759757995      -19.7994841735
 Na       -2.9481926946        1.9551572096      -19.5672560776
 Na       -2.7000486560       -4.3207801407       -6.9431488129
