232

 C        -0.1312543384        5.1854696639      -21.1213102916
 C        -1.3415285730        4.4329060347      -20.7148200953
 O        -1.4510387625        3.2345777358      -20.9658021982
 C        -2.4720631192        5.1942444697      -19.8454584386
 C        -3.7805495882        5.1694213212      -20.6654992130
 O        -4.3284048386        4.1030800528      -20.7797042134
 C        -4.5893421610        6.4374893800      -21.2101603606
 C        -5.7936640349        6.0297798728      -22.0575849639
 C        -7.1025663055        5.6458549046      -21.2405365866
 O        -7.2475519412        6.0813556331      -20.1504698540
 C        -8.0929541872        4.6073128356      -21.8211157773
 C        -7.3955744500        3.3069075295      -22.1510474152
 O        -6.5684043070        3.2445336248      -22.9994424272
 C        -7.9422516671        2.0577751780      -21.2998852765
 C        -7.5020575990        0.7440306672      -21.8927949965
 C        -6.0331662621        0.5388248409      -21.3416722832
 O        -5.6404507934        1.0064076031      -20.2897788881
 C        -5.1783019321       -0.6065611092      -22.1234337111
 C        -3.8397865485       -0.8474663355      -21.3198767599
 O        -2.7651362109       -0.3914228392      -21.7391526819
 C        -3.7598361424       -1.5354286132      -19.9129251739
 C        -2.2983646240       -1.7014851853      -19.3229910157
 C        -1.9761314572       -0.6187776351      -18.2663523811
 O        -2.4491277457        0.5307295769      -18.2737837395
 C        -0.9496052296       -0.9691925582      -17.2031332772
 C        -1.4994570579       -2.1185601225      -16.2796101157
 O        -1.9746953710       -3.0668932520      -16.8738323429
 C        -1.6843183168       -1.9934215798      -14.7571041665
 C        -2.4697082726       -3.2430000202      -14.1921120832
 C        -2.0271248476       -3.4000143974      -12.6578642817
 O        -1.0655967686       -2.8197811341      -12.2292993340
 C        -2.8001241810       -4.5498434414      -11.9844854706
 C        -2.2001404447       -4.4947433427      -10.4762265910
 O        -2.9127119154       -4.0947983736       -9.5883780784
 C        -0.8751790227       -5.0673621727      -10.0922752598
 C        -0.3358423145       -4.6389940212       -8.6961031873
 C        -0.5689018581       -5.8720614833       -7.7019492639
 O        -1.6751844582       -6.0834505906       -7.2022051112
 C         0.6623609473       -6.8740418459       -7.3976842550
 C         1.7891843626       -6.0939219156       -6.4978859619
 O         1.9253493825       -4.8939464064       -6.7601987235
 C         2.9681765808       -6.7251991670       -5.7881466926
 C         3.4309751555       -5.7383755998       -4.6615277402
 C         2.3038887016       -5.2467033772       -3.7573159456
 O         1.2174953525       -5.8398021775       -3.8319283599
 C         2.4971141020       -4.0172094879       -2.7501253777
 C         1.2501402911       -3.0194686360       -2.9694122667
 O         1.4460958339       -1.8444896560       -3.1621230515
 C        -0.2321157989       -3.6128138599       -2.7227699985
 C        -1.3631256988       -2.5548994991       -3.0139750405
 C        -1.4938062911       -2.5353999228       -4.5643543170
 O        -1.7023922628       -3.5036245578       -5.2538506978
 C        -1.2891480736       -1.1028480865       -5.2963887328
 C        -2.5985030592       -0.9713071273       -6.0771356228
 O        -2.9604027141       -1.7298926286       -6.9762353107
 C        -3.7356064054        0.0001088324       -5.5365240693
 C        -4.7658006143        0.2699921930       -6.6506660033
 C        -6.1365451324        0.0157817686       -5.9731516624
 O        -6.3778908038        0.4622740257       -4.8626739765
 C        -7.2308279934       -0.7909084709       -6.7127053455
 C        -7.0249989765       -2.2980303591       -6.3746634041
 O        -7.0909650636       -3.1353237053       -7.2312670461
 C        -6.9385243742       -2.5503632129       -4.8986076682
 C        -7.0831181670       -4.1150030670       -4.6977769444
 C        -5.9585377471       -4.8239629881       -5.3463907794
 O        -4.9132637644       -4.2598916383       -5.6287363130
 C        -6.0210990813       -6.3784542437       -5.2581824903
 C        -5.4463798628       -6.7016538053       -3.8125406171
 O        -6.1698528981       -7.2613425656       -3.0247311426
 C        -3.9919724041       -6.3115845328       -3.5421097273
 C        -3.6666267526       -6.0959050983       -2.0667995116
 C        -4.3567799145       -4.8323506527       -1.3602525615
 O        -4.5959126181       -3.9259704263       -2.0685938806
 C        -4.5852148606       -4.9193628825        0.2140614909
 C        -4.2958646429       -3.5167212596        0.8516710708
 O        -3.2177910018       -3.3100108749        1.4165185735
 C        -5.2520801385       -2.2749131209        0.6315695947
 C        -4.5021351931       -1.0319960727        0.1351138814
 C        -5.1768463031        0.3366486686        0.1751178721
 O        -6.3235803944        0.5128003845       -0.1938290350
 C        -4.1741482558        1.6036585303        0.3023898836
 C        -3.0702784682        1.5563028057       -0.8062500225
 O        -2.5087933313        0.5252634670       -1.0410549268
 C        -2.8912186936        2.6778400026       -1.7649312031
 C        -5.0806741015        2.9149594724        0.2544949354
 C        -3.4720121082        1.6269844431        1.6704649913
 C        -6.0543558003       -5.2672275153        0.4371101560
 C        -3.6401266367       -5.9134909278        0.8390527792
 C        -7.4694623851       -6.7527989771       -5.3861645221
 C        -5.0819951583       -7.0940829938       -6.3949632476
 C        -8.7175508727       -0.4151632179       -6.1380554697
 C        -7.1024649897       -0.6457459771       -8.1938330652
 C        -0.9718488683        0.0832854591       -4.3609849326
 C        -0.1863134707       -1.2832897186       -6.3425029728
 C         2.5485773048       -4.5142604425       -1.3530765049
 C         3.8666826621       -3.2932254347       -3.0283745429
 C         0.0583327295       -8.0984381732       -6.6295795362
 C         1.3082053499       -7.2176555869       -8.6604115989
 C        -4.2537660034       -4.1269608398      -11.8427555586
 C        -2.5135621058       -5.8856750779      -12.6535924362
 C         0.3860901253       -1.4505871770      -17.9353744212
 C        -0.5823053399        0.3269942191      -16.4005474891
 C        -6.0608887338       -1.9040530305      -22.2323262464
 C        -4.7763835300       -0.3022510909      -23.6348608943
 C        -9.2991741994        4.4883172103      -20.7804081601
 C        -8.5817217185        5.2384845031      -23.2530406083
 C        -2.8235660854        4.3848655965      -18.5609278091
 C        -1.9921385715        6.6749476585      -19.4597486489
 H         0.1219533383        5.9419727495      -20.4344592085
 H        -0.4037876086        5.7263741572      -22.0661603306
 H         0.7239237429        4.5346358790      -21.1687933990
 H        -3.8728757901        7.1957745187      -21.7875632764
 H        -4.8132186979        6.8440216870      -20.1975341530
 H        -5.6788499113        5.2342444319      -22.7879902600
 H        -6.2694138840        6.8986533729      -22.5785392523
 H        -9.0242698832        2.0671348212      -21.2365325190
 H        -7.5669794062        2.0617586060      -20.2856943364
 H        -7.5376082244        0.8999437600      -22.9422066300
 H        -8.0315129368       -0.1679791945      -21.5678915711
 H        -4.2275270923       -2.4606882696      -19.8802192508
 H        -4.4034035254       -0.9331043530      -19.2343801165
 H        -1.5275227590       -1.5887317203      -20.1743290149
 H        -2.1882921209       -2.7067693984      -18.8845150737
 H        -2.0837131241       -0.9986035388      -14.6657075636
 H        -0.6983137415       -1.9966028609      -14.2197110506
 H        -2.2490647948       -4.1888911335      -14.7589760032
 H        -3.5475880161       -3.1629486365      -14.2175703833
 H        -0.1170137131       -4.9712153832      -10.8834319251
 H        -0.9846425297       -6.1774011622      -10.1748398055
 H        -0.8869990761       -3.8344885863       -8.3151498155
 H         0.6788323859       -4.3277999087       -8.7224572175
 H         3.7470316422       -6.7846321788       -6.5854716469
 H         2.9467648953       -7.6634679736       -5.3903156852
 H         3.7149036603       -4.8031529484       -5.1886221252
 H         4.3924177708       -6.1378309548       -4.1819088927
 H        -0.4014900594       -3.8873981564       -1.6623091674
 H        -0.4645531705       -4.5738957568       -3.2795510002
 H        -1.0227021999       -1.5677079368       -2.7258569236
 H        -2.2681428951       -3.0017702243       -2.6007645810
 H        -3.1321511656        0.9026575955       -5.2060146515
 H        -4.0771665369       -0.4499633515       -4.6747865968
 H        -4.5913770056       -0.4295248354       -7.4242761247
 H        -4.6936889236        1.2497289784       -6.8884621564
 H        -7.6239817320       -1.9481628886       -4.3123743097
 H        -5.9117896021       -2.3442501912       -4.7479112821
 H        -8.0795813754       -4.4884980861       -4.9034217725
 H        -7.0182028795       -4.3895185698       -3.5800269899
 H        -3.8990200415       -5.2539283880       -3.9053218492
 H        -3.1906461861       -7.0044967303       -3.8687292764
 H        -2.5947955448       -5.7088858041       -2.1970348441
 H        -3.6629667852       -7.1043369047       -1.5370851589
 H        -5.5971877248       -1.9220196371        1.5921152582
 H        -6.1009678029       -2.4754017208       -0.0500554618
 H        -4.1396671881       -1.1732758050       -0.9546618353
 H        -3.5123093487       -0.9451378837        0.6314948645
 H        -3.5548763638        2.5420418267       -2.6048912529
 H        -1.8802756705        2.4873832740       -2.2258833147
 H        -2.9275752509        3.7408121520       -1.5466521366
 H        -4.5859074083        3.8896717173        0.5344784392
 H        -5.8914674544        2.9183361511        0.9934922388
 H        -5.4798071747        2.9581454302       -0.7579657519
 H        -4.2836750351        1.4688627823        2.3698173390
 H        -3.0265638795        2.6119968585        1.7248541187
 H        -2.7187292336        0.8555090976        1.7578165512
 H        -6.1063128376       -6.2768146742        0.3034315430
 H        -6.6631126789       -4.8013037305       -0.2902062075
 H        -6.3025062817       -4.9241502582        1.4897905638
 H        -3.9494347706       -6.9500814509        0.5834227985
 H        -3.7826823745       -5.8832013924        1.8797353802
 H        -2.6355622163       -5.6832255331        0.5250225727
 H        -7.9779378193       -6.8710756151       -4.3985314262
 H        -7.5434643602       -7.7542694655       -5.9284666959
 H        -7.9954793605       -6.0860217322       -5.9701013347
 H        -5.7458055643       -7.4779870050       -7.1955788886
 H        -4.5439709673       -7.9534691909       -5.9417473839
 H        -4.3800104556       -6.3839212967       -6.8292668885
 H        -8.7136638692        0.1427600126       -5.1375585242
 H        -9.3629253667       -1.2940564749       -5.9614889712
 H        -9.3853968860        0.2354193116       -6.7671073507
 H        -6.2519536065       -1.3066570084       -8.5139464790
 H        -7.1243059149        0.3420929317       -8.6046043198
 H        -7.8555599961       -1.2300606071       -8.7086702691
 H        -0.8920307650        0.9983687804       -5.0096111318
 H        -0.0119880069        0.0037631453       -3.7912534261
 H        -1.6934525356        0.4007864899       -3.6123922845
 H         0.5856041883       -1.9334285300       -5.9300422683
 H         0.0910347444       -0.2132364110       -6.7119709663
 H        -0.6948015459       -1.7296820434       -7.2279519533
 H         3.1638708498       -5.3828297232       -1.1423996585
 H         1.5511740498       -4.6765371519       -1.0468771909
 H         2.9323996740       -3.6699226883       -0.8114741723
 H         4.0678923505       -3.0986246137       -4.0106494333
 H         4.6959523488       -3.9519790430       -2.7880577684
 H         3.9447953448       -2.2940612695       -2.4816636363
 H        -0.7357950124       -7.6746534900       -5.9497481192
 H         0.8858578638       -8.7134218414       -6.0739582904
 H        -0.4487934938       -8.6387549085       -7.4356412449
 H         2.2266833544       -7.8617183731       -8.5446932012
 H         1.6272596051       -6.3973768905       -9.2285975965
 H         0.6598660060       -7.7118262799       -9.3825386449
 H        -4.7363217565       -4.6872702884      -11.0949324447
 H        -4.7759584881       -4.2378265175      -12.7498854699
 H        -4.3488436479       -3.0248441930      -11.6339277486
 H        -3.0271388926       -6.6694832652      -12.0964017551
 H        -1.4806915348       -6.1247024618      -12.6094002617
 H        -2.8184948678       -5.9625811469      -13.6447036132
 H         0.7797543696       -0.5668473444      -18.4773223021
 H         0.2992877987       -2.2302462819      -18.7609738242
 H         1.0522942550       -1.8148086144      -17.2009696884
 H         0.0652585019       -0.0459440678      -15.5732805227
 H        -1.4514672325        0.8917576527      -16.1189599775
 H         0.0680932566        0.9986579598      -17.0227237018
 H        -5.3651762539       -2.7277236891      -22.3638457828
 H        -6.7889305606       -1.9483200647      -23.0790771052
 H        -6.5788236111       -2.0177716400      -21.3330666765
 H        -4.1198524042       -0.9761623685      -24.1024197940
 H        -4.0764803758        0.5430025100      -23.5454603803
 H        -5.6937767941       -0.1716988499      -24.2046612330
 H        -8.8581184332        4.2968325283      -19.8252872243
 H        -9.7942011876        3.6382806433      -21.0503951378
 H        -9.9767549540        5.2932307996      -20.8765948602
 H        -8.5757216380        6.2881768551      -23.2638836710
 H        -9.5332535888        4.7776359944      -23.3354798068
 H        -7.8735771681        4.9396544283      -24.0493452933
 H        -3.5372931809        3.6790567330      -18.8885643947
 H        -3.2203274464        5.1526547524      -17.8310713822
 H        -2.0094432684        3.8673162883      -17.9971313529
 H        -1.5974282508        7.2395886418      -20.2617389438
 H        -1.2609181702        6.5119020982      -18.7059402548
 H        -2.7861577863        7.2452883566      -18.9917556992
 Na       -3.3218264388        1.8117724685      -20.0360921859
 Na       -3.2694497821       -4.1056247309       -7.2295331348
