232

 C        -0.2031315155        5.3161159009      -20.9501093377
 C        -1.5494269220        4.5783137638      -20.5443571071
 O        -1.5695069839        3.3798042583      -20.8569012250
 C        -2.7067315550        5.2522089582      -19.6772896801
 C        -3.9558134621        4.9893854102      -20.5807407833
 O        -4.5385621691        3.9337690145      -20.5020597847
 C        -4.4770511957        6.0647366577      -21.4382544695
 C        -5.6211977354        5.5948549763      -22.2273876195
 C        -6.7144524415        5.1435705339      -21.2431470944
 O        -6.6456720102        5.3121654937      -20.0477040095
 C        -8.0049141172        4.5117293314      -21.9387875229
 C        -7.5197671532        3.0468990295      -22.2402403987
 O        -6.5372370010        2.7551474061      -22.9645014353
 C        -8.2881185636        1.9648837820      -21.6493252605
 C        -7.7261803407        0.5156202177      -21.9661585673
 C        -6.2735137636        0.3413147125      -21.6180458209
 O        -5.8568628771        1.1600812943      -20.8190980852
 C        -5.2764604660       -0.7153022800      -22.1417257410
 C        -3.9309664321       -0.6924428068      -21.3891450412
 O        -3.0568472522        0.0300792508      -21.7257959234
 C        -3.7919636037       -1.5992863512      -20.1218154575
 C        -2.4720217771       -1.5920822814      -19.3677987606
 C        -2.3008247853       -0.3935920907      -18.3974719712
 O        -2.7678729424        0.7003096016      -18.6104964485
 C        -1.3564302477       -0.5874004980      -17.0111806984
 C        -1.8194742622       -1.8225181834      -16.0832722301
 O        -2.2653571612       -2.7435203203      -16.7297947828
 C        -1.6256181347       -1.8822396946      -14.4943646913
 C        -2.5889136778       -3.0054179897      -13.9391434097
 C        -2.1099283580       -3.5929926214      -12.6405794386
 O        -0.9108757216       -3.5053098040      -12.3755150139
 C        -3.0652929125       -4.6176605542      -11.7815931400
 C        -2.6941437088       -4.5244027493      -10.2702159633
 O        -3.4486265638       -4.3228773977       -9.3379968565
 C        -1.2155656322       -4.9253175550       -9.9956579132
 C        -0.5527662619       -4.5005558555       -8.6385077738
 C        -0.4819554011       -5.7139878019       -7.6794068321
 O        -1.2702779628       -5.9513141120       -6.7954662677
 C         0.7010748470       -6.6146345382       -7.7507212083
 C         1.8580921404       -5.7563758950       -6.9214021310
 O         1.9569095358       -4.5595691623       -7.0990508424
 C         3.0315762074       -6.3910608074       -6.1737802315
 C         3.3617362523       -5.5089641867       -4.9431579882
 C         2.2946518077       -5.4982724997       -3.8247776689
 O         1.2735688331       -6.1213715048       -3.9301328853
 C         2.6682131912       -4.4545342390       -2.6355529123
 C         1.6232369414       -3.2539615545       -2.8182272672
 O         1.8733476411       -2.2213799522       -3.3972347920
 C         0.1942137343       -3.6031428307       -2.4211004058
 C        -0.9459410371       -2.6905236551       -2.8158862349
 C        -1.1182935018       -2.5413433692       -4.4225886848
 O        -1.1153410962       -3.5638583663       -5.0861565609
 C        -1.0985569814       -1.1356399262       -5.1915183903
 C        -2.5385972400       -0.9186201188       -5.9403738814
 O        -2.9887808169       -1.7623999709       -6.7050142907
 C        -3.3432402027        0.3648539854       -5.6637644405
 C        -4.5817648261        0.3944896810       -6.6032745869
 C        -5.9831656298        0.2417272121       -5.9441254809
 O        -6.1920162335        0.5244438705       -4.8122302028
 C        -7.1731879395       -0.4993766142       -6.7709098242
 C        -7.2170323860       -2.0909420534       -6.4908220723
 O        -7.1596031803       -2.8344351931       -7.4594312742
 C        -7.2270920827       -2.5883500506       -5.0837289414
 C        -7.1973657860       -4.0862206674       -4.9957895585
 C        -5.9115230421       -4.6525058448       -5.5532618013
 O        -4.9396148836       -3.9328852797       -5.8225273366
 C        -5.7848136312       -6.2376003008       -5.5018620314
 C        -5.3845013761       -6.6596713465       -3.9287506707
 O        -6.2312469457       -7.1084716968       -3.2122972039
 C        -3.9063682651       -6.4555772335       -3.5414890163
 C        -3.6878508023       -6.4225243700       -2.0669209827
 C        -4.0570242126       -5.1180978918       -1.3557919533
 O        -3.9137062609       -4.0688414144       -2.0429608438
 C        -4.2087325315       -4.9771198920        0.2165452829
 C        -4.0367836635       -3.4816213872        0.6368396943
 O        -3.0292457279       -3.1362196864        1.1927973212
 C        -5.1701024982       -2.3939665745        0.2994548261
 C        -4.5223316698       -1.0283461915       -0.0851319753
 C        -5.2860313387        0.1875154972        0.3862253016
 O        -6.5056252360        0.1823077157        0.4854435180
 C        -4.5141640867        1.5195464555        0.5947030595
 C        -3.5050125020        1.7126827957       -0.5970724527
 O        -2.6520122048        0.8531392474       -0.9455503589
 C        -3.5874387352        3.0020359047       -1.2493208383
 C        -5.4733434121        2.6668195997        0.8701758404
 C        -3.7136601262        1.2096480307        1.9341778762
 C        -5.6245836765       -5.5243698607        0.6575932409
 C        -3.1667233228       -5.8679282086        1.0571087992
 C        -7.2248100407       -6.8562001748       -5.7381976200
 C        -4.8153599693       -6.8013405143       -6.4965287077
 C        -8.4936074258        0.1241232009       -6.4926529062
 C        -6.9385333909       -0.4223892274       -8.3380847075
 C        -0.6271295232        0.0630753430       -4.3397915835
 C        -0.1035874289       -1.3231867560       -6.4237721559
 C         2.5446060231       -5.1231193900       -1.2228023683
 C         4.1076549290       -3.9117803300       -2.7527753901
 C         0.4430190115       -7.9079050863       -6.9308730235
 C         1.2959962062       -6.9630441620       -9.1562330290
 C        -4.5232373498       -4.0457023103      -11.9802779365
 C        -2.8293740084       -6.0453830033      -12.5108041132
 C         0.0185438581       -0.9213438567      -17.5468109804
 C        -1.3801179717        0.7644920872      -16.2477107178
 C        -6.0443380946       -1.9803556868      -21.9959621344
 C        -4.9972101668       -0.3973703665      -23.6909588342
 C        -9.2213206917        4.6527732268      -20.9556927446
 C        -8.4791231707        5.1841734272      -23.3246753285
 C        -3.0490412156        4.4877592902      -18.2825769825
 C        -2.3611656065        6.7252250918      -19.3890750228
 H        -0.0583855944        5.3379330268      -22.0512820893
 H         0.5641501804        4.6868468171      -20.5763486780
 H        -0.1322092632        6.3292451047      -20.5899694055
 H        -3.7004443222        6.3744696155      -22.1383576907
 H        -4.6911931585        6.8227594704      -20.5813212976
 H        -5.3523801660        4.7626134841      -22.9945445495
 H        -5.9895415753        6.3155363890      -22.9433177788
 H        -9.3274852500        1.9670811712      -21.9576546132
 H        -8.3606641443        2.1812086702      -20.5803064306
 H        -7.8536993441        0.3505664177      -23.0391773286
 H        -8.3441248294       -0.1442166231      -21.3798870134
 H        -4.0599948679       -2.6409785492      -20.4911772770
 H        -4.5449147693       -1.4197918175      -19.3994067478
 H        -1.5887123166       -1.5047345993      -20.0633272521
 H        -2.4120324179       -2.5061941400      -18.7113568680
 H        -1.8488514469       -0.8399877034      -14.1924939967
 H        -0.6043274099       -1.9305765203      -14.1124250264
 H        -2.4918882928       -3.8428572512      -14.6401914635
 H        -3.6665714771       -2.7037911818      -13.9268655408
 H        -0.4315464426       -4.7655894097      -10.7710074982
 H        -1.3684727366       -6.0248378517      -10.0242473577
 H        -1.1263767418       -3.7856121802       -8.1445319293
 H         0.3846683611       -4.0681227173       -8.6983146519
 H         3.9150473561       -6.3138200519       -6.7854591450
 H         2.9669049725       -7.4703272926       -5.7482825216
 H         3.6191674918       -4.4830012997       -5.3371318842
 H         4.2904552819       -5.9214582595       -4.4861079263
 H         0.0899609959       -3.8175925420       -1.3172907895
 H         0.0478074166       -4.5821385941       -2.9523356358
 H        -0.7292091872       -1.6759697156       -2.4751527588
 H        -1.9163954099       -3.1151608271       -2.6180404049
 H        -2.8945195441        1.3627055022       -5.6680430821
 H        -3.6451542681        0.2585534275       -4.6389734341
 H        -4.6422709230       -0.3407963327       -7.2705185570
 H        -4.5579495594        1.3046884906       -7.1250290429
 H        -8.2328346961       -2.2649905562       -4.8444148053
 H        -6.4864526967       -2.1629681578       -4.4525804494
 H        -8.1768034244       -4.4524873833       -5.4194981944
 H        -7.1870591826       -4.3539105781       -3.8889690512
 H        -3.5729741253       -5.4557504860       -3.8978092903
 H        -3.2682216783       -7.2587079043       -4.0198460192
 H        -2.6685970477       -6.8583732134       -1.7177610444
 H        -4.4949685949       -7.1588357313       -1.7169781004
 H        -5.7417863686       -2.1953096362        1.2512487762
 H        -5.7490338537       -2.8250507853       -0.4657091400
 H        -4.2728736029       -1.0394408022       -1.2062468429
 H        -3.5258086172       -1.0827633528        0.4174929608
 H        -2.9524554131        3.0079327699       -2.1784306363
 H        -3.2916113574        3.8670400119       -0.7017714707
 H        -4.5799262722        3.3043328403       -1.6060393289
 H        -4.9094048907        3.5317698957        1.2592022596
 H        -6.1746479000        2.1838153453        1.5538439502
 H        -5.9985576100        3.0947064740        0.0056621558
 H        -4.4123249564        1.0436601364        2.7165837156
 H        -3.0974872933        2.0417448852        2.2662437410
 H        -3.0776227012        0.3941058666        1.6107968485
 H        -5.8082310117       -6.4795915492        0.1087098104
 H        -6.3566706421       -4.7927611521        0.3559156147
 H        -5.6174629940       -5.7272008719        1.6538368973
 H        -3.2853574888       -6.8738854914        0.8007612230
 H        -3.3487716885       -5.6373743121        2.1147540182
 H        -2.1341231685       -5.5678122531        0.9724325195
 H        -8.0010241204       -6.2466475999       -5.3310852740
 H        -7.2063737160       -7.8134207745       -5.3101665956
 H        -7.4406628665       -7.0826831213       -6.8341323911
 H        -4.8930774223       -6.1206500051       -7.3828693047
 H        -5.0057623303       -7.8482739915       -6.6201792214
 H        -3.8225805025       -6.7520060918       -6.0058246303
 H        -9.0834870289       -0.2808678837       -5.6690165949
 H        -9.2116320458        0.2940269854       -7.3212860826
 H        -8.4182595678        1.2270024387       -6.3752090761
 H        -6.1951885472       -1.1136341669       -8.7282246750
 H        -6.4859399893        0.5912502459       -8.6008689104
 H        -7.8683308947       -0.5534889017       -8.9112430231
 H        -0.5382205650        0.9348116453       -4.9612123954
 H         0.3826348770        0.0236580867       -3.8786482609
 H        -1.3348819784        0.1278297280       -3.4767091990
 H         0.9037351178       -1.4938276049       -5.9123666323
 H        -0.1495406524       -0.4890184466       -7.1362874115
 H        -0.3899240450       -2.3533775111       -6.7187708288
 H         3.4401736077       -5.6640291301       -0.9863744346
 H         1.6929020034       -5.8294414657       -1.0831542352
 H         2.5059704694       -4.3194811985       -0.5156443796
 H         4.2916540850       -3.3433454678       -3.7326452472
 H         4.8619714772       -4.6877792664       -2.6966563753
 H         4.2572321576       -3.2193056331       -1.9951250659
 H         0.8651436424       -7.8177816639       -5.8780213673
 H         0.7923829485       -8.8444095605       -7.4121986974
 H        -0.7064867339       -8.0334341168       -6.8708137979
 H         2.1891810061       -7.5198954071       -9.1513319492
 H         1.4184600938       -6.0786555822       -9.8579583711
 H         0.7269323650       -7.6567661297       -9.7023105401
 H        -5.1775612385       -4.2917742723      -11.1420813602
 H        -5.0335413945       -4.3817585650      -12.8731121120
 H        -4.4978951447       -2.9887663497      -12.0594047413
 H        -3.4254088216       -6.7534306635      -12.0590056244
 H        -1.8117592161       -6.3242946895      -12.5650298233
 H        -3.0989063842       -6.0364852402      -13.5684695743
 H         0.4117302235       -0.1006045927      -18.0952351761
 H        -0.1147805277       -1.7324287720      -18.2111490267
 H         0.9143018285       -1.0519672037      -16.8401076399
 H        -1.0061106306        0.5058408352      -15.2732642946
 H        -2.3786914397        1.2360235973      -16.2293904964
 H        -0.7150839863        1.4399019771      -16.7310950228
 H        -5.4659275919       -2.7172852539      -22.5233654259
 H        -6.9308299635       -1.7578113849      -22.4872981733
 H        -6.2099677482       -2.3261019223      -20.9330788519
 H        -4.1449014654       -1.0898624733      -23.8584839890
 H        -4.8734597482        0.5889609950      -24.0966204349
 H        -5.7624647053       -0.9706532794      -24.1741656891
 H        -8.7615062287        4.5089161328      -20.0067156370
 H        -9.9337906869        3.8888490836      -21.1501204392
 H        -9.6331687717        5.6002263968      -20.9589697539
 H        -9.0433802889        6.0605869446      -22.9545793463
 H        -9.0625688579        4.5239885384      -23.9413277852
 H        -7.6378913644        5.4357952274      -23.8676632561
 H        -3.1825046355        3.3568575778      -18.3122429389
 H        -3.9938335645        4.9286398586      -18.0590104502
 H        -2.3473925594        4.7487741577      -17.4566045910
 H        -2.2292563481        7.2594832979      -20.3320867001
 H        -1.5283125087        6.8805820976      -18.7372476435
 H        -3.2271475718        7.2381987216      -19.0269831870
 Na       -3.3614344301        1.8827717374      -20.6542501547
 Na       -2.7225206406       -4.2252787261       -6.6731356868
