232

 C        -0.2784867952        5.4017812941      -20.7652701057
 C        -1.4393234743        4.5340792853      -20.3785711132
 O        -1.4358202259        3.3387296291      -20.6070225039
 C        -2.6295469450        5.2255139842      -19.5553197746
 C        -3.8175399270        4.9627799560      -20.5822233093
 O        -4.4240757113        3.9064398223      -20.6333987516
 C        -4.3284590720        6.0948890787      -21.5879101662
 C        -5.6615563910        5.6314985131      -22.3469086706
 C        -6.8701026039        5.0621814046      -21.4089720196
 O        -6.7454254705        5.1663740601      -20.2099157897
 C        -8.1403672102        4.3573946641      -22.0347514389
 C        -7.7154320199        2.9554772173      -22.3796909557
 O        -6.8085422857        2.7480963120      -23.1126994357
 C        -8.3235762743        1.7727465278      -21.6435834280
 C        -7.6095330841        0.4706688513      -21.9957551528
 C        -6.1696116558        0.4109108249      -21.4972547936
 O        -5.7044579983        1.2804778368      -20.8584672085
 C        -5.3610460732       -0.7772261122      -22.1457971820
 C        -4.0085189089       -0.8278987715      -21.4087434485
 O        -3.1210016934       -0.1184886320      -21.9196645912
 C        -3.7929322917       -1.6943886130      -20.1993181159
 C        -2.4926164665       -1.4567547656      -19.3670732476
 C        -2.4513949649       -0.3393840296      -18.2674829921
 O        -2.9694194246        0.7409327796      -18.5297944142
 C        -1.5420352698       -0.5286648978      -16.9903163758
 C        -2.0528739832       -1.7962338928      -16.1648686191
 O        -2.5789248207       -2.6863295328      -16.7869176818
 C        -1.8456105359       -1.8253660906      -14.5851004517
 C        -2.7580322854       -2.7688573449      -13.9202961669
 C        -2.2001049189       -3.5264712159      -12.5983103614
 O        -0.9889862411       -3.5529350170      -12.5312499745
 C        -3.1375733003       -4.5296348326      -11.7229920868
 C        -2.5289748696       -4.4666859285      -10.2492389828
 O        -3.2842698914       -4.1156694040       -9.3439819365
 C        -1.1566094673       -5.0963097608      -10.0210075151
 C        -0.5599475959       -4.5555314032       -8.7273301756
 C        -0.4585050677       -5.8058632289       -7.7819437880
 O        -1.4769955044       -6.1253336365       -7.1386134203
 C         0.8373257871       -6.5766211114       -7.7456826915
 C         1.9902825372       -5.6945451144       -7.0943628239
 O         2.0438538332       -4.4821187930       -7.3611893638
 C         3.1058270516       -6.2699914742       -6.3031481148
 C         3.5028488590       -5.4892010877       -5.0140992136
 C         2.4822521014       -5.5334743832       -3.8962195456
 O         1.4592281943       -6.2413520315       -3.8168208892
 C         2.6369561558       -4.5726940884       -2.6496866380
 C         1.6583799263       -3.4011986496       -2.9178833733
 O         2.0539647684       -2.3784257925       -3.4892521694
 C         0.2139621752       -3.5868545934       -2.4171653005
 C        -0.6970156884       -2.3940403791       -2.7671380258
 C        -1.0988645820       -2.5317504732       -4.2762252056
 O        -1.2453126507       -3.6058564201       -4.8746462644
 C        -1.0845919882       -1.1637776810       -5.1027017325
 C        -2.4406909475       -1.0004617796       -5.8197036102
 O        -2.9027556450       -1.9288218988       -6.4947392451
 C        -3.2557718805        0.2774549174       -5.6620345381
 C        -4.4237337610        0.3943868993       -6.6995040548
 C        -5.8580672757        0.1344559375       -6.0233016342
 O        -5.9611101884        0.4637997252       -4.8519822554
 C        -6.9877707587       -0.3978334245       -6.9093884375
 C        -7.1787661166       -1.9228325655       -6.6712354357
 O        -7.4773061906       -2.6632623290       -7.5887557871
 C        -7.2767204397       -2.5094171868       -5.2174503358
 C        -7.2381015415       -4.0869084667       -5.2439438725
 C        -5.8581752324       -4.6817480538       -5.5571764964
 O        -4.9357025476       -3.9043761288       -5.7032927228
 C        -5.7267196231       -6.2263663356       -5.5535515767
 C        -5.2874501685       -6.5967507437       -4.0260692037
 O        -6.2297590387       -6.8110137188       -3.2857369888
 C        -3.7340593080       -6.4123334506       -3.5920623534
 C        -3.7266710284       -6.6375194554       -1.9725758114
 C        -3.9208161881       -5.2264136952       -1.3214467215
 O        -3.7094776156       -4.2534791516       -1.9398836553
 C        -4.1084157236       -5.1042526609        0.2518130273
 C        -3.9254201201       -3.5246367528        0.5888944257
 O        -2.9292086621       -3.1919150657        1.1849088918
 C        -5.0790766378       -2.5188622343        0.0452950629
 C        -4.4924945355       -1.1058995712       -0.2224244452
 C        -5.3022851507       -0.0054731592        0.4567175056
 O        -6.4393573742       -0.1700421122        0.7680805947
 C        -4.5976563709        1.4443580663        0.7672755047
 C        -3.6930210916        1.9389528148       -0.4731922049
 O        -2.8229800325        1.2450832586       -0.9030816324
 C        -3.8174484494        3.2472827608       -1.1322617985
 C        -5.6774258035        2.5217085810        1.1202996857
 C        -3.6562773837        1.2350228739        1.9019066093
 C        -5.5441456931       -5.4958510173        0.6357917937
 C        -3.0378587654       -5.9525817801        1.0536034062
 C        -7.0493387408       -6.8782809983       -5.9414662572
 C        -4.6308358666       -6.7094209564       -6.5166065089
 C        -8.2430593026        0.2479839025       -6.2659771349
 C        -6.7714343714       -0.0269192701       -8.3673844531
 C        -0.7806032849        0.1578767320       -4.1935121145
 C        -0.0216852802       -1.3531576287       -6.3116377110
 C         2.2864368982       -5.2851241835       -1.3028679571
 C         4.0943514390       -4.0087069007       -2.5480040528
 C         0.7560659762       -7.9853628364       -6.9958703508
 C         1.2529081358       -6.8379387154       -9.1778237378
 C        -4.6281800622       -4.1006953607      -11.6932357268
 C        -3.0970017275       -5.9680185393      -12.2136393994
 C        -0.0780184581       -0.6830079761      -17.2892493124
 C        -1.6481645777        0.8026990595      -16.2645680621
 C        -6.2352995346       -2.0661871567      -22.0634669200
 C        -5.2114638588       -0.3882353439      -23.6883958154
 C        -9.2512415074        4.3701947593      -21.0508551546
 C        -8.5316936330        5.0144702474      -23.4325458784
 C        -2.7732790751        4.5305688232      -18.1442591042
 C        -2.3723333685        6.7964444801      -19.2980540676
 H        -0.5148300342        6.4197458834      -20.9796790672
 H         0.2444255826        4.9606879627      -21.6738401595
 H         0.3508268844        5.4311900772      -19.8155270513
 H        -3.5665937118        6.2110804540      -22.3613185789
 H        -4.5160382920        6.8922239124      -20.9804066064
 H        -5.4959569861        5.0771226630      -23.2318858473
 H        -6.1326721237        6.4935370197      -22.9026400119
 H        -9.3667002230        1.6010255281      -21.9868895330
 H        -8.4863047262        1.9433879786      -20.5658481585
 H        -7.6292797151        0.3731955782      -23.0936602426
 H        -8.2231957854       -0.3339409336      -21.5142955949
 H        -3.8476559338       -2.7432164652      -20.5012301833
 H        -4.7666917134       -1.5478432299      -19.5709290959
 H        -1.7176115989       -1.1895669935      -20.0732470343
 H        -2.2791521075       -2.3629874352      -18.8367515639
 H        -1.8456189635       -0.8191000440      -14.1624560816
 H        -0.8270386633       -2.0894609463      -14.2206522036
 H        -3.0027242333       -3.5667285025      -14.6546330193
 H        -3.6760052655       -2.3048618802      -13.6136799691
 H        -0.4138025908       -4.9955094996      -10.7799546084
 H        -1.3971084439       -6.1632194310       -9.9246407819
 H        -1.1489329128       -3.7582094966       -8.1845775098
 H         0.4791202816       -4.0612757301       -8.8521746237
 H         4.0106131660       -6.2224643828       -7.0185047242
 H         3.0040776550       -7.2345477133       -5.9852249691
 H         3.5570575847       -4.4532963284       -5.2434368666
 H         4.4743274719       -5.7939376708       -4.6727336609
 H         0.1072676984       -3.7159876880       -1.3319802934
 H        -0.2114018161       -4.5135032082       -2.8697914678
 H        -0.2187626461       -1.4187661669       -2.7188063573
 H        -1.6942716473       -2.5317897988       -2.2655468977
 H        -2.6263577862        1.1868605405       -5.8871339233
 H        -3.5145280425        0.5260317101       -4.6088657875
 H        -4.4295042794       -0.3826856907       -7.5818684095
 H        -4.4155764625        1.4179253328       -7.1956987136
 H        -8.1801921172       -2.0792635749       -4.6981505878
 H        -6.3179592782       -2.1962607474       -4.7129379013
 H        -7.9067654218       -4.3068223825       -6.0742997358
 H        -7.6810231236       -4.5647761964       -4.3747140760
 H        -3.3389474793       -5.4090378871       -3.8918329351
 H        -3.1482831417       -7.1790872065       -4.1093039666
 H        -2.7666546140       -6.9589355142       -1.6890473139
 H        -4.3920386682       -7.4267394371       -1.6795603824
 H        -5.8319901185       -2.4609978864        0.8106298240
 H        -5.4681472294       -3.0504700539       -0.8885249087
 H        -4.7498387620       -0.9522772903       -1.2329488954
 H        -3.4233274945       -1.1364800892       -0.1511297287
 H        -2.8358923649        3.5994109724       -1.3506990344
 H        -4.4033855078        4.0743922676       -0.6745434831
 H        -4.2616217955        3.2401616041       -2.1099546948
 H        -5.2209617640        3.5329759514        1.1762675236
 H        -6.3595073444        2.1311168362        1.8778470410
 H        -6.3193776266        2.5911575697        0.2251410363
 H        -3.9664847392        0.3200884006        2.4360352043
 H        -3.9059702075        1.9907354692        2.6364718691
 H        -2.6168301339        1.2372401269        1.5831629126
 H        -5.6406110914       -6.4987138184        0.8806821950
 H        -6.1241104671       -5.2315246417       -0.2243326218
 H        -5.9211529161       -4.8682716939        1.5363192403
 H        -3.1238391152       -7.0577655404        0.7709940835
 H        -2.9796604476       -5.6934639741        2.0977453005
 H        -2.0146314804       -5.6552773968        0.7266760755
 H        -7.7188098482       -7.0156327407       -5.0610454971
 H        -6.8068905346       -7.8288667669       -6.5028374739
 H        -7.5321686707       -6.2791261500       -6.6357606970
 H        -5.0971198806       -6.7510915898       -7.4647485162
 H        -4.3297480962       -7.6732706860       -6.1379946047
 H        -3.7978203311       -6.0658262857       -6.4872063929
 H        -8.0891218619        0.2368036812       -5.1830766096
 H        -9.1998996910       -0.1357099211       -6.3989237105
 H        -8.4413369665        1.2475731271       -6.5824825480
 H        -5.8543084199       -0.5298302652       -8.7130924844
 H        -6.4448450529        0.9534284031       -8.4769239180
 H        -7.6289044891       -0.1656946390       -8.9922526354
 H        -0.6189928842        1.0599123165       -4.8368802285
 H         0.2638352111        0.0737745976       -3.8340315809
 H        -1.4099685913        0.2820541729       -3.3222384147
 H         0.8117688568       -1.9105642525       -6.0288577063
 H         0.2560737392       -0.3065329664       -6.4730779848
 H        -0.5490469871       -1.8170213686       -7.1032807765
 H         2.8156118986       -6.2270328184       -1.1434135881
 H         1.2304721144       -5.5025850144       -1.2571332827
 H         2.4805541608       -4.6578882358       -0.4557723450
 H         4.3576757651       -3.3575571688       -3.2933474428
 H         4.8872731376       -4.7680360005       -2.3980936768
 H         4.1327243558       -3.4679259346       -1.5105565441
 H         1.0480816791       -7.9923769850       -5.9595244920
 H         1.3816061493       -8.7064814559       -7.5552486862
 H        -0.2090642370       -8.3818232353       -7.0735522135
 H         2.1991796465       -7.3860275188       -9.3963734233
 H         1.4047344264       -5.9569502498       -9.7484992954
 H         0.4874862860       -7.4225281327       -9.7014895729
 H        -5.2079969163       -4.7402591460      -11.0460555969
 H        -5.0551865495       -4.2941542615      -12.6706979197
 H        -4.8422625135       -3.0272204855      -11.3349850552
 H        -3.8189331354       -6.6472204325      -11.6837829767
 H        -2.0751652385       -6.3464551171      -12.1254643643
 H        -3.3088909272       -6.0219659221      -13.2503474340
 H         0.4547968696        0.1086741562      -17.8294949955
 H         0.2327893006       -1.6905639300      -17.6605724370
 H         0.4058721443       -0.5448874254      -16.3764307507
 H        -0.9185039004        0.8819089691      -15.4104120658
 H        -2.6848053547        0.8747353577      -15.9207182296
 H        -1.5045948450        1.5834097950      -17.0830036581
 H        -5.5858457250       -2.9185799056      -21.8811355475
 H        -6.8803843879       -2.0647662419      -22.9588250620
 H        -6.8347446122       -1.9690916419      -21.1872652672
 H        -4.4068153014       -0.9138013086      -24.1932360924
 H        -5.2222945114        0.7408597884      -23.6509504275
 H        -6.1385334413       -0.5073061373      -24.2051921647
 H        -8.7985354332        3.8488574840      -20.1420980639
 H       -10.0702102054        3.8041024560      -21.4685424671
 H        -9.4770380619        5.3999331258      -20.6904586603
 H        -9.0867953838        5.9195482112      -23.3867553378
 H        -9.2061172324        4.2515590249      -23.8213977927
 H        -7.6322614767        4.8681190162      -24.0745600596
 H        -2.9184726721        3.4660192031      -18.2885114515
 H        -3.6191575671        4.9118831160      -17.5150439775
 H        -1.7777939018        4.6489860475      -17.6566511822
 H        -2.2379290354        7.4705970224      -20.1141611333
 H        -1.4537521420        6.8847423540      -18.7166012796
 H        -3.1172353910        7.2336687965      -18.6284677679
 Na       -3.4308799219        1.9379938431      -20.3586529914
 Na       -2.8962252014       -4.0595020542       -6.6965657297
