232

 C        -0.1266264769        5.3174465277      -20.6617527366
 C        -1.3904475660        4.5558212312      -20.2861398881
 O        -1.4154054232        3.3372809979      -20.3357660749
 C        -2.6396069817        5.2980292140      -19.6122910507
 C        -3.8818101071        4.9173944469      -20.6077030938
 O        -4.2597133288        3.8025656198      -20.7370169229
 C        -4.5658221383        6.1279490297      -21.4250523752
 C        -5.7544143985        5.5769299420      -22.2601848898
 C        -6.9167070901        5.1441183450      -21.4691007449
 O        -6.8735351425        5.2612313518      -20.2584305571
 C        -8.1206717135        4.4011766353      -22.1338895874
 C        -7.7369238868        2.8591067207      -22.4779823123
 O        -6.9701062476        2.6196949389      -23.4138333282
 C        -8.3215355684        1.7431766729      -21.6240313770
 C        -7.7220477200        0.3174316148      -21.7747728990
 C        -6.2350691730        0.2480874951      -21.5645525050
 O        -5.7436696543        1.2000468594      -20.8921122435
 C        -5.2730187573       -0.8283414382      -22.1968320656
 C        -3.9709847947       -0.8105382351      -21.3910397320
 O        -3.0616826437       -0.1130503239      -21.7464309513
 C        -3.7450838658       -1.5399202936      -20.0326549471
 C        -2.3233847129       -1.3187978827      -19.3938290807
 C        -2.5385701120       -0.3227333656      -18.2949450139
 O        -3.3129219274        0.6196883049      -18.4199421868
 C        -1.8465302306       -0.5100555344      -16.8791847840
 C        -2.4020830818       -1.7582668325      -16.1218811954
 O        -2.9347630954       -2.6959601357      -16.7169970090
 C        -2.0838239324       -1.8785032039      -14.6471669127
 C        -3.1694116804       -2.6958081749      -13.7899695737
 C        -2.3596055409       -3.5306588586      -12.7626706912
 O        -1.1676487587       -3.5308398120      -12.7044613773
 C        -3.2002092443       -4.3119140655      -11.6317918378
 C        -2.5360485212       -4.3427552642      -10.2440609879
 O        -3.1111315163       -3.7908339127       -9.3262139930
 C        -1.1664266975       -5.0317722328      -10.1270771074
 C        -0.4465560508       -4.6498355696       -8.8432322941
 C        -0.3746721439       -5.8541892258       -7.8827529282
 O        -1.3044418229       -6.1033193522       -7.1649850220
 C         1.0406230799       -6.6155865457       -7.7562378889
 C         2.1143464353       -5.6049595950       -7.1735854825
 O         2.1061099432       -4.4785533999       -7.5223326783
 C         3.1767321720       -6.2259770696       -6.2342202835
 C         3.5925642605       -5.2647026386       -5.1081300386
 C         2.6264137925       -5.5819055673       -3.8730479715
 O         1.7763894801       -6.4168581530       -3.9612455526
 C         2.6753508952       -4.7809819541       -2.6206673789
 C         1.6541102691       -3.5597976289       -2.8979240134
 O         2.0177420146       -2.6299084174       -3.5608599926
 C         0.2544117337       -3.6276692217       -2.3134955003
 C        -0.6060473985       -2.3571931005       -2.7031175676
 C        -1.0905457057       -2.4624546380       -4.2205601616
 O        -1.6321472142       -3.4227360191       -4.6962577588
 C        -0.9819984158       -1.0707953276       -5.0656343418
 C        -2.4440978922       -0.9666608435       -5.8230782925
 O        -2.8782309300       -1.8596966784       -6.5066774201
 C        -3.1610528528        0.3817772983       -5.8029099623
 C        -4.3437733022        0.3889601287       -6.7097595698
 C        -5.6489810050        0.1024985512       -6.0203194507
 O        -5.6025135703        0.1585937318       -4.8050693054
 C        -6.9529785583       -0.2580685364       -6.8420544302
 C        -7.2632151899       -1.7695339352       -6.8421475889
 O        -7.5328969997       -2.3256029060       -7.8510592785
 C        -7.1335581874       -2.4401799145       -5.4050869617
 C        -7.2121158243       -4.0256903616       -5.3914813018
 C        -5.8417961660       -4.6742404299       -5.5813894612
 O        -4.8094546348       -4.0012116996       -5.7392226995
 C        -5.7201750268       -6.2471513277       -5.4787179173
 C        -5.3958798423       -6.4128712797       -3.9459888159
 O        -6.3646814698       -6.5707403055       -3.2495599570
 C        -3.8499429544       -6.5682438132       -3.4984338649
 C        -3.8404111745       -6.5667074124       -2.0416430224
 C        -3.8071057109       -5.2011691118       -1.3801600623
 O        -3.4450294258       -4.2119576010       -2.0873878921
 C        -4.0127352074       -5.0387073528        0.1411987992
 C        -3.8425622226       -3.5206827826        0.4577654221
 O        -2.8619239403       -3.1512872161        1.0777126846
 C        -4.8976925011       -2.5257088046       -0.0498304150
 C        -4.2876505813       -1.1295816054       -0.1381660759
 C        -5.1510044945       -0.1255596446        0.5125466950
 O        -6.2580828026       -0.4473051164        0.9683412826
 C        -4.6698593342        1.3185671358        0.7485076108
 C        -3.9561047664        1.9546298138       -0.3541375341
 O        -3.0014208700        1.3974166680       -0.9379491905
 C        -4.2554241001        3.3248013973       -0.8621542305
 C        -5.8800069010        2.1288342417        1.2180974133
 C        -3.6100253164        1.1927884523        1.9311476053
 C        -5.4341099052       -5.5740643399        0.4134119933
 C        -3.0064442135       -5.8799145117        0.9621183225
 C        -6.8926251571       -7.1672240721       -5.9154680192
 C        -4.4724526480       -6.6589301908       -6.4131295981
 C        -8.2051711632        0.5059031676       -6.1985036457
 C        -6.8961395584        0.1720405869       -8.3797415206
 C        -0.6997836348        0.1766339111       -4.2122224652
 C         0.1643676284       -1.2145849080       -6.1318655712
 C         2.3010411832       -5.6669896182       -1.4720614024
 C         4.0420910247       -4.0888132936       -2.3072576708
 C         0.6863561119       -7.9038198278       -6.9902342771
 C         1.5273205873       -6.9161408799       -9.1485585957
 C        -4.6602645758       -3.7958382388      -11.5225468235
 C        -3.1355465501       -5.7789554570      -12.2197911590
 C        -0.3120114393       -0.8024005869      -17.2245447955
 C        -2.0667600918        0.7402005517      -16.0228118657
 C        -5.9870748944       -2.2991925150      -22.0058793588
 C        -5.0756263891       -0.5135772589      -23.6533417015
 C        -9.3153188026        4.5256100683      -21.1624731647
 C        -8.5067328209        5.0598855124      -23.4251041924
 C        -2.7359675855        4.5245453940      -18.2846998259
 C        -2.5779850088        6.8909190214      -19.4044917525
 H        -0.0902443839        6.3196355488      -20.1571454988
 H        -0.2479355501        5.5832993431      -21.6744501331
 H         0.7393192276        4.7514042846      -20.4602811252
 H        -3.7302674854        6.6192396094      -21.9757524594
 H        -5.2105641933        6.7284283337      -20.6594064595
 H        -5.5601111954        4.6521888724      -22.8969933375
 H        -6.0233318039        6.1976151721      -23.1059623617
 H        -9.4080859427        1.7422679968      -21.7069582161
 H        -8.1723720952        2.0974825512      -20.5982705641
 H        -7.9156527289       -0.0077636480      -22.7962938938
 H        -8.1906700817       -0.3318905787      -21.0717601144
 H        -3.7467625482       -2.6103637358      -20.2208509428
 H        -4.5372921421       -1.3515177850      -19.4242304256
 H        -1.7333232633       -0.7881363770      -20.1528225927
 H        -1.9002145308       -2.2734334950      -19.0155581244
 H        -1.7763823067       -0.9815743800      -14.0666992921
 H        -1.1216140679       -2.3916934842      -14.6350468278
 H        -3.6716496401       -3.4225257022      -14.4021296325
 H        -3.9030041338       -2.0328466895      -13.2915039291
 H        -0.5277524867       -4.6185431310      -10.9485022269
 H        -1.2367501563       -6.1314257338      -10.2116114996
 H        -1.0026120270       -3.8857244878       -8.2985903931
 H         0.5379578767       -4.2863228549       -8.8960514381
 H         4.0041007453       -6.5788461777       -6.7568291623
 H         2.7658372367       -7.0687409434       -5.5499351339
 H         3.6215130812       -4.2043531141       -5.5083693443
 H         4.6297442362       -5.5034532540       -4.7719830426
 H         0.1994302610       -3.6198506711       -1.2380715828
 H        -0.2110646428       -4.5366840107       -2.5598599162
 H        -0.0407088163       -1.4505628045       -2.7618064270
 H        -1.4480316407       -2.3674884499       -2.0482179033
 H        -2.5616307162        1.2201082513       -6.0306775605
 H        -3.4308719911        0.6512018813       -4.7689303803
 H        -4.2524119996       -0.2828003846       -7.4830184936
 H        -4.6650517859        1.3021415920       -7.1802348532
 H        -7.9527801194       -2.0863663320       -4.8047876604
 H        -6.2258640871       -2.1734475217       -4.9033024714
 H        -7.9872052002       -4.3763830539       -6.0906947752
 H        -7.5531145918       -4.2923871187       -4.4045801501
 H        -3.4191058135       -5.6560220763       -3.9116292254
 H        -3.3200076618       -7.4056367264       -3.9872129044
 H        -2.9590103175       -7.1605262995       -1.6473512220
 H        -4.7073363559       -7.1561843418       -1.6891827721
 H        -5.7546984674       -2.5580293180        0.6545173690
 H        -5.2199330967       -2.9045741698       -0.9653628954
 H        -4.0489097552       -0.9694099484       -1.2188967327
 H        -3.3681420311       -1.1911194578        0.4763934809
 H        -3.6104767229        4.1346617072       -0.5050377469
 H        -5.2767492457        3.6181206019       -0.7610678436
 H        -4.0896897601        3.4574811085       -1.9371557607
 H        -5.4739048841        3.0191520660        1.5940320386
 H        -6.2949256927        1.4475943644        1.9430022933
 H        -6.7307428234        2.2215715185        0.5435046291
 H        -3.8315841961        0.2535894414        2.4521482983
 H        -3.7270598281        2.0168957735        2.6462206664
 H        -2.6141810469        1.0722678142        1.4579139883
 H        -5.3131067832       -6.7040040628        0.6286013850
 H        -6.1275480940       -5.3942543040       -0.4530744434
 H        -5.8479534225       -5.1398899258        1.2804420197
 H        -3.1316730640       -6.8845144450        0.7088519542
 H        -3.2190597431       -5.6923570367        2.0310297622
 H        -1.9602497473       -5.6709898643        0.8280511541
 H        -7.4770764472       -7.3599906185       -5.0409583615
 H        -6.5030928717       -8.0711709292       -6.2693983847
 H        -7.5503778692       -6.6444018451       -6.6872838468
 H        -4.7058204698       -6.1458940662       -7.3619350534
 H        -4.5295008856       -7.7648435998       -6.5922963494
 H        -3.5286904208       -6.2795676419       -5.9717707037
 H        -8.1352514448        0.8463673196       -5.1790019611
 H        -9.1282727874       -0.1564973132       -6.0811964779
 H        -8.5492895006        1.3926552123       -6.7496576967
 H        -5.9779757140       -0.1096615322       -8.7919647564
 H        -6.9028553226        1.2692354431       -8.6044879713
 H        -7.8055567677       -0.2192602174       -8.8922349706
 H        -0.8626483573        0.9976480230       -4.8738057772
 H         0.3060722263        0.2497766780       -3.8723735485
 H        -1.4464555133        0.3003199820       -3.4097715633
 H         1.0700374394       -1.1603323582       -5.4976641781
 H         0.1800829388       -0.3184938256       -6.6649333737
 H        -0.0207077158       -2.1422835122       -6.7270587576
 H         3.2047172150       -6.1687746248       -1.0735802228
 H         1.5556886587       -6.4295285465       -1.7660856258
 H         1.7783581514       -5.1129423693       -0.6036355401
 H         4.2871431990       -3.3430705317       -3.1570768053
 H         4.8085403657       -4.8566642400       -2.2775706505
 H         4.1359716556       -3.6914508091       -1.3682432786
 H        -0.0329356745       -7.6698870650       -6.1776242330
 H         1.4590767392       -8.5016244428       -6.5583405869
 H         0.1476509432       -8.6677596433       -7.6219915707
 H         2.3983572321       -7.5640652096       -9.2168740195
 H         2.0041944864       -6.0293724923       -9.6036253589
 H         0.7740884725       -7.2691839170       -9.9267418775
 H        -5.4402826785       -4.4812791845      -11.1369055812
 H        -5.0052949437       -3.5777945630      -12.5532415397
 H        -4.7068576837       -2.9726484993      -10.9083691927
 H        -3.3701961095       -6.5669457970      -11.4947719215
 H        -2.1430803708       -6.0545244238      -12.6776727875
 H        -3.9451195151       -5.8281000918      -13.0228632393
 H         0.0606969917        0.0464553642      -17.8014298552
 H        -0.1780392380       -1.6856698879      -17.7982810020
 H         0.4941821861       -0.8882222076      -16.4504252036
 H        -1.3984957192        0.6705944525      -15.2164679526
 H        -3.0521912926        0.6648796139      -15.5701998542
 H        -1.8988968133        1.5989532003      -16.5854182644
 H        -5.3072884839       -3.1011345881      -22.2590650186
 H        -6.9477289488       -2.2839692715      -22.5681046223
 H        -6.1696356194       -2.3175857128      -20.9322785210
 H        -4.7615314197       -1.3989391038      -24.2503026295
 H        -4.4491772517        0.3163989714      -23.5978653243
 H        -5.9772942336        0.0425367182      -24.0743496469
 H        -9.1669984787        4.0542405438      -20.2447121600
 H       -10.1495096646        4.0617853186      -21.7607643612
 H        -9.4912079842        5.5902942837      -20.9727842088
 H        -8.3548546533        6.1480228054      -23.2649106910
 H        -9.5982929072        5.0320983336      -23.5870636667
 H        -7.9264157816        4.5803431570      -24.1897253067
 H        -3.0121317415        3.5277863450      -18.5463635540
 H        -3.5217288968        4.8462099707      -17.6204503264
 H        -1.8168108526        4.5434223829      -17.8236897862
 H        -2.4128709030        7.3883502733      -20.4117104316
 H        -1.6996188059        7.2858727532      -18.8338097863
 H        -3.4250888399        7.3220216035      -18.8379080998
 Na       -3.3988716791        1.7375247179      -20.2920042012
 Na       -2.6954718518       -4.1242473676       -6.8743968084
