232

 C       -19.3575782002       -5.0193713660       -5.3896337190
 C       -19.5439897216       -5.8470812769       -4.1337280384
 O       -18.4866101239       -6.3465522876       -3.7283254697
 C       -20.8337768907       -5.8751256697       -3.2154745009
 C       -20.3646583832       -5.6460262606       -1.7076250157
 O       -20.1094014136       -6.5462696900       -0.8847006005
 C       -20.0988737942       -4.1252018522       -1.2931850129
 C       -18.9579862045       -3.8288273031       -0.2218107445
 C       -17.5377185576       -3.6276215097       -0.8777710237
 O       -17.4470538140       -2.9710187573       -1.9043607219
 C       -16.1762514547       -4.2679760473       -0.3082803465
 C       -16.2032059267       -5.6931449424       -0.8684822366
 O       -17.0924621101       -6.4520665934       -0.3944914423
 C       -15.2503971885       -6.2853743015       -1.8536900197
 C       -14.6349681640       -7.5764624169       -1.4221072598
 C       -15.0191778030       -8.7609906812       -2.3252727357
 O       -16.1681925255       -9.0635191758       -2.5921958366
 C       -13.8118521397       -9.6979135983       -2.8034319997
 C       -12.6026421772       -8.9403075817       -3.5305329242
 O       -12.6531899550       -7.8963674022       -4.1677794342
 C       -11.2160867330       -9.6335669961       -3.4775335771
 C       -10.4852522890       -9.4404642689       -4.7952614981
 C        -9.0373153802       -9.9278862368       -4.7314135409
 O        -8.6639385159      -10.7679214350       -3.9021954549
 C        -8.0091271033       -9.3603044252       -5.8503003466
 C        -7.9473964115       -7.8307173087       -5.6881892683
 O        -8.7073484692       -7.1507732506       -5.0167317530
 C        -6.7941468766       -7.1991990781       -6.4190432442
 C        -7.2636053431       -5.6980691519       -6.7079111672
 C        -8.3804051310       -5.6046128858       -7.7416743618
 O        -9.0542935668       -6.5860986129       -8.0044956827
 C        -8.4306192189       -4.2351217826       -8.4768677429
 C        -7.1082305666       -4.0769447695       -9.2582604345
 O        -6.0455081560       -4.2289034515       -8.7099144920
 C        -7.1106888134       -3.7456263181      -10.8662173976
 C        -5.7213795687       -3.3916440690      -11.3372821002
 C        -5.7678022654       -2.8432342206      -12.8104051945
 O        -6.6950538135       -2.2262753345      -13.3036844982
 C        -4.4968177824       -3.0208004732      -13.7743264215
 C        -3.2371019942       -2.5091442221      -13.0282572806
 O        -3.3863006984       -2.0415019595      -11.9101024267
 C        -1.8176649634       -2.4316046290      -13.6706447607
 C        -0.6128565799       -2.5758114704      -12.7443215948
 C         0.6770244483       -1.9629974414      -13.0987008296
 O         0.8034657726       -1.3732619220      -14.1446548947
 C         1.9682829916       -2.5289640192      -12.4222685619
 C         2.8519441702       -1.2820125741      -11.9825423531
 O         4.0883079840       -1.3367411147      -11.9204041113
 C         2.1275536781       -0.0174510845      -11.4578277162
 C         3.0082393364        1.0346189105      -10.7821087285
 C         2.7860903917        2.4403748857      -11.1953349398
 O         1.9421416647        2.7886461186      -11.9497944238
 C         3.8358535731        3.5306789170      -10.6669044422
 C         4.3166555564        4.3047773508      -12.0012840752
 O         5.4903587669        4.3107772988      -12.2547923281
 C         3.3078534382        5.4377093295      -12.5797014644
 C         4.0543231108        6.7181898650      -12.3445075626
 C         5.5153094162        6.9180915995      -13.1148017230
 O         5.4619390361        6.6972483483      -14.3333566243
 C         6.7593878225        7.7282188697      -12.3758468805
 C         7.9435438098        7.7538333560      -13.4108799667
 O         8.1982379205        8.7103863282      -14.0224121043
 C         8.5656952313        6.3996582845      -13.6233031369
 C         9.3428763438        6.3068973385      -15.0373972639
 C         8.4847063981        5.7380407611      -16.0543464594
 O         7.4672313639        5.2407579879      -15.6944520800
 C         8.6926158017        6.0148757732      -17.5990090172
 C         9.6335945744        4.9410718851      -18.2214335267
 O        10.5031560399        4.5686695560      -17.4706634129
 C         9.7400304480        4.6640337391      -19.7287056347
 C         9.7134409704        3.1678673016      -20.0455929314
 C         8.3941207731        2.6477163176      -19.6011317389
 O         7.8424351631        3.2984409154      -18.7881284128
 C         7.6078957325        1.3219487911      -20.0703768143
 C         7.8010447710        0.3767816194      -18.8038677570
 O         8.4421285107       -0.6347630118      -18.8353700683
 C         7.0626579645        0.8228486104      -17.5770116318
 C         8.0003485051        0.6130724444      -16.3424316241
 C         7.2217920819        1.2760685916      -15.2137037257
 O         7.3089510675        2.4772037869      -15.0503871105
 C         6.0188218091        0.4885143818      -14.4259278952
 C         4.6560863597        1.1199023514      -14.7980443494
 O         4.4899997063        2.3303245759      -14.7665799784
 C         3.6238269568        0.2826939187      -15.7310811246
 C         6.0593236566       -1.0359704460      -14.4876099730
 C         6.3098937455        0.8936499958      -12.9072873603
 C         6.1150082029        1.7559634093      -20.6206103248
 C         8.3902880363        0.6654660389      -21.2434516662
 C         7.2598368903        6.0438505576      -18.2799699477
 C         9.4844586947        7.2953490479      -17.8662033737
 C         6.1840976492        9.1259019571      -12.1188063784
 C         7.0913160096        7.0449595206      -11.0788016821
 C         3.1166960866        4.6035802577       -9.7632184229
 C         5.0925447529        2.9785666460       -9.8978094937
 C         1.7176937343       -3.5122922446      -11.2901609877
 C         2.7234640800       -3.1757405274      -13.5979101931
 C        -4.3012398465       -4.5272898809      -13.9669863839
 C        -4.7512895954       -2.2846591125      -15.0659385270
 C        -9.6864081509       -4.0901379931       -9.3479631604
 C        -8.4295340537       -3.0497026445       -7.3975105314
 C        -6.6740337869      -10.0488159390       -5.4397873125
 C        -8.3806339277       -9.7940793660       -7.2700743053
 C       -13.4038492484      -10.3586907560       -1.4391147799
 C       -14.4426533083      -10.6884676790       -3.8591960726
 C       -15.0534834965       -3.4203178284       -0.7806711037
 C       -16.0986620840       -4.3083521352        1.2771777633
 C       -21.8488544375       -4.8677797847       -3.5774137441
 C       -21.3540822051       -7.3181058310       -3.3552120821
 H       -19.1733747090       -3.9957437482       -5.0355308078
 H       -20.2556413099       -5.0794419427       -5.9360185943
 H       -18.5065083344       -5.4696443282       -5.9631169610
 H       -20.9579537915       -3.8135508832       -0.7125545862
 H       -20.0455535576       -3.5012893592       -2.2059609428
 H       -18.9202388800       -4.5876822363        0.5182270974
 H       -19.2197263216       -2.8781613154        0.2250158506
 H       -14.4583408779       -5.6007593736       -2.2407705499
 H       -15.8939807525       -6.4299125975       -2.7457625397
 H       -14.8382541572       -7.8431907494       -0.4539105207
 H       -13.5341285552       -7.3902299851       -1.3013230244
 H       -11.4084316430      -10.6807413145       -3.2440984549
 H       -10.6239205621       -9.1537927696       -2.7325252969
 H       -10.4457716723       -8.3320605038       -5.0066782747
 H       -10.9512813410       -9.9271452850       -5.6270800185
 H        -6.6651121630       -7.7589768692       -7.3878286568
 H        -5.8373587128       -7.2333674029       -5.8786548142
 H        -6.4348846824       -5.1362522591       -7.0731343758
 H        -7.6381206553       -5.2527552773       -5.7175138535
 H        -7.7543604965       -2.8703717139      -11.0106939924
 H        -7.4986683181       -4.5672937977      -11.3784206769
 H        -5.0715395076       -4.2744694168      -11.2965307374
 H        -5.2507104478       -2.6032642106      -10.7083364174
 H        -1.8935557878       -1.5377964174      -14.3146848945
 H        -1.7128650324       -3.2656921560      -14.4421641775
 H        -0.6064546759       -3.6338216499      -12.5411260722
 H        -0.9722448601       -2.1694396835      -11.6814137852
 H         1.3644851463       -0.4250988429      -10.8404348605
 H         1.6507762617        0.5241617575      -12.2910233980
 H         4.0565381755        0.9278255529      -11.0814605959
 H         3.1021350271        0.9665579858       -9.6659703466
 H         2.2548398480        5.4256186675      -12.1987045627
 H         3.1895136926        5.1064945953      -13.6723149702
 H         4.3228245255        6.8876759820      -11.2975751747
 H         3.4616221553        7.5485651100      -12.8226423587
 H         7.8320321422        5.6203581741      -13.5485638191
 H         9.2975323164        6.2167693065      -12.8777411446
 H        10.3104691012        5.8242976498      -14.9398792537
 H         9.4386976951        7.2975311960      -15.3966797045
 H        10.6625965957        5.1714955202      -20.0182947795
 H         8.8670113660        5.1283093527      -20.2342471719
 H        10.4609075387        2.7998894508      -19.3454671925
 H        10.0122466052        2.8094342409      -21.0975253140
 H         6.2911355549        0.1100372096      -17.4053058202
 H         6.5838882818        1.7867890615      -17.5354286767
 H         8.9527560350        1.1255044502      -16.6243394639
 H         8.1379087688       -0.4912608082      -16.2811819562
 H         3.9876238555       -0.0779455727      -16.7325611040
 H         2.5395832592        0.6796385714      -15.7644129733
 H         3.5191576471       -0.5836577230      -15.1321964363
 H         5.6507917606       -1.3098458537      -13.5136136060
 H         7.0906593518       -1.3983403217      -14.6184466277
 H         5.5357383978       -1.3913757859      -15.3884697963
 H         5.6482485956        0.3650211871      -12.1751320435
 H         6.3394848383        1.9380578113      -12.6032483267
 H         7.2329844623        0.4869164010      -12.5920969305
 H         5.4606583731        0.9378161309      -20.7158380118
 H         6.1711549970        2.1577991160      -21.6327397544
 H         5.6832625951        2.4699379738      -19.9078057491
 H         7.9427689938       -0.3045490941      -21.4992595248
 H         9.4768897410        0.6031602547      -21.1201138982
 H         8.2899896720        1.2350765669      -22.1970935812
 H         6.7278876380        6.8717883743      -17.8711255823
 H         6.7086733921        5.1340060619      -18.2481592806
 H         7.3865044076        6.2332621810      -19.3580358673
 H        10.4671001445        7.2012005681      -17.5213883145
 H         9.0153703889        8.2319906857      -17.5754226027
 H         9.7332305815        7.4664846990      -18.8726330929
 H         6.8673668271        9.7856523913      -11.6526830255
 H         5.4242608194        9.1722506476      -11.3702447523
 H         5.7069644251        9.5564429536      -13.0302757911
 H         7.3477987213        7.6919845680      -10.2594318862
 H         7.9034149099        6.2847771519      -11.1653270401
 H         6.1912962887        6.4869639128      -10.8641767227
 H         3.3758666107        4.5433795908       -8.6838812774
 H         2.0905536284        4.3380655137       -9.5753124977
 H         3.1070498146        5.6200687212       -9.9639883471
 H         5.8325886559        3.7578427113       -9.8734626948
 H         5.5142887973        2.1861685969      -10.4714574609
 H         4.7823785916        2.5608755655       -8.9845119396
 H         1.1783119711       -3.1196958493      -10.4349530921
 H         2.5573633598       -4.0408246520      -10.9377549618
 H         1.0871818022       -4.2861189255      -11.7006840951
 H         2.4121894066       -4.1718103188      -13.7308575435
 H         3.7720656973       -3.0934216861      -13.4348080138
 H         2.5397998200       -2.5993464124      -14.4387245466
 H        -3.6279773573       -4.8938775547      -14.7318847106
 H        -5.3230346995       -4.9372713018      -14.2046289570
 H        -4.1672534412       -4.9786595312      -13.0002827877
 H        -3.8363595175       -2.0271750936      -15.6146124825
 H        -5.1602202604       -1.3234242367      -14.8690598168
 H        -5.3987413960       -2.8161025979      -15.8000064540
 H        -9.4552036863       -3.8187891447      -10.4013802284
 H       -10.3127459546       -3.3186291474       -8.8444486102
 H       -10.3496117378       -4.9382066387       -9.2867983760
 H        -8.6251617010       -3.5513392066       -6.4205946885
 H        -9.1874733561       -2.3394130450       -7.6461974598
 H        -7.5369054333       -2.4252253981       -7.3000850519
 H        -6.6392289449      -11.1131474433       -5.6624506387
 H        -6.5667650031       -9.9854806341       -4.3853189162
 H        -5.8081238902       -9.6409601591       -5.9491034195
 H        -8.5498181002      -10.9051510845       -7.2506382330
 H        -7.5396534418       -9.4790137459       -7.8051733456
 H        -9.3164527464       -9.4799518745       -7.6632057982
 H       -13.5563872846       -9.6181105963       -0.6135998131
 H       -12.4269209882      -10.7483519232       -1.3263965039
 H       -14.1569654676      -11.1389299746       -1.1369035540
 H       -14.9101239960      -10.0520272139       -4.6148846203
 H       -15.0848107966      -11.3324205021       -3.3050808477
 H       -13.6291544855      -11.1971412588       -4.3017647129
 H       -14.6808319685       -3.6491565694       -1.8202913190
 H       -14.1378453258       -3.4146105472       -0.2176395030
 H       -15.3863252410       -2.3730045397       -0.8077866643
 H       -16.8961887119       -4.8261669238        1.7199590238
 H       -16.2668307945       -3.2115307609        1.6143169597
 H       -15.1403729878       -4.5139052982        1.6293883269
 H       -21.3574488836       -3.8855994252       -3.6073853902
 H       -22.6936111426       -4.7673625550       -2.8776319346
 H       -22.3632205702       -4.9675072769       -4.4204658091
 H       -22.2081903547       -7.5398222480       -2.7663529981
 H       -20.5742705188       -8.0696023327       -3.1725545570
 H       -21.7368020809       -7.4872689626       -4.3749747955
 Na      -18.1994441689       -8.0250548360       -1.9330812916
 Na        5.8629128939        4.1798764943      -14.5597428500
