232

 C        -0.4855740504        5.3383789235      -20.2291560532
 C        -1.7507858298        4.4365029275      -20.0251593392
 O        -1.8559252663        3.2361452201      -19.9320726105
 C        -3.0868346119        5.2924495593      -19.8986015805
 C        -4.0202982184        4.9941375187      -21.2203888196
 O        -3.8352514802        3.9771564667      -21.8511558113
 C        -5.1087674955        6.1015512427      -21.5746272605
 C        -6.1497441733        5.4886101732      -22.6492867489
 C        -7.2451227557        4.7942125800      -21.8907219791
 O        -7.0474533454        4.6279404708      -20.6842109735
 C        -8.3865390948        4.0387609097      -22.6023970457
 C        -7.9861277355        2.5183419930      -22.7955652423
 O        -7.2423573379        2.0831457919      -23.6687772972
 C        -8.3792326798        1.6003991709      -21.7124367013
 C        -7.7191022787        0.2210760948      -21.6686862005
 C        -6.1703624774        0.2992984720      -21.4799337359
 O        -5.7374855356        1.3329836916      -20.9404032531
 C        -5.2016541485       -0.8451019190      -22.0277219883
 C        -4.1955360165       -0.9118248981      -20.7909184729
 O        -2.9974114536       -0.5683844896      -20.9694971890
 C        -4.6141824056       -1.6734003663      -19.5326801123
 C        -3.5049559302       -1.6805013284      -18.5232646177
 C        -3.4026832056       -0.2574658833      -17.8816351440
 O        -3.6840790589        0.7388988910      -18.5895801482
 C        -2.9850508569       -0.1382041420      -16.4406676682
 C        -3.7580369009       -1.2424817439      -15.5597959900
 O        -4.9827797647       -1.3166467264      -15.5906544973
 C        -3.0264235184       -2.3160691336      -14.7986527753
 C        -3.8082036547       -3.0658293609      -13.6898829660
 C        -2.9338065792       -3.6187698403      -12.4977962431
 O        -1.7293719425       -3.6733373824      -12.6807000778
 C        -3.6135145687       -4.1510557341      -11.1444738891
 C        -2.5011870092       -4.1175703581      -10.1476640206
 O        -2.3166258066       -3.1403232580       -9.3991693310
 C        -1.7194751171       -5.3922014135       -9.8366332515
 C        -0.2564721870       -5.1369153186       -9.6140904593
 C         0.2599118556       -5.5320540786       -8.2429142579
 O        -0.4200237569       -5.2097906245       -7.3030738282
 C         1.5852902538       -6.2878307676       -7.9467816763
 C         2.4369184997       -5.2332191505       -7.0760386086
 O         2.3544249872       -4.0594856328       -7.2501621439
 C         3.6023323488       -5.8467905730       -6.3439832673
 C         3.7465779667       -5.4079224179       -4.8518246310
 C         2.7759163875       -6.2669569512       -3.9418745604
 O         2.5561825480       -7.4094764834       -4.1916922226
 C         2.2882121449       -5.4724950708       -2.6598242695
 C         1.5594155642       -4.0522763528       -2.9710887504
 O         2.0145536900       -3.2064201341       -3.6707818972
 C         0.1523747740       -3.7580443986       -2.2580795736
 C        -0.4547948495       -2.4481296933       -2.7956488668
 C        -0.8404931891       -2.3466050570       -4.2721100197
 O        -1.4937303386       -3.2352511140       -4.8373819001
 C        -0.5680944396       -1.0436825407       -5.0761302935
 C        -1.9002309093       -0.6029130647       -5.8504855513
 O        -2.2580867110       -1.2871756082       -6.8316080220
 C        -2.3072185468        0.8626727712       -5.7300651562
 C        -3.6267723918        0.9744671189       -6.4152417962
 C        -4.6704131726        0.0167093263       -5.8029194209
 O        -4.2063334680       -0.7871594430       -5.0351352498
 C        -6.1324769971        0.0795429663       -6.2535435420
 C        -6.5734835484       -1.3816934537       -6.8859227554
 O        -6.2719489914       -1.6264894928       -8.0343111063
 C        -6.9375967809       -2.5702035461       -5.9282099193
 C        -6.8020091074       -4.0152912155       -6.3804559067
 C        -5.3224800177       -4.6297003224       -6.5188031059
 O        -4.5238686241       -4.0724308155       -7.2952243366
 C        -5.0388339781       -6.0301401974       -5.9855115116
 C        -4.9614533218       -5.8653729363       -4.3780964484
 O        -5.5455411578       -4.9338309160       -3.8982090030
 C        -4.4572525831       -7.1205740024       -3.4524406619
 C        -4.5643882490       -6.6841446870       -2.0356175357
 C        -3.6160640383       -5.5364309513       -1.6701242182
 O        -2.9058726484       -4.9278216444       -2.5040381127
 C        -3.6823451236       -5.0906765278       -0.1753058557
 C        -3.1304552301       -3.6599884711       -0.1023467402
 O        -1.9572519123       -3.4290797778        0.1206714719
 C        -4.0325452876       -2.4721997044       -0.4436084441
 C        -3.5091808653       -1.3726772755        0.4505265116
 C        -4.8175250636       -0.4910213899        0.7274601820
 O        -5.9464110866       -0.9343621486        0.4900321263
 C        -4.7803675445        0.8702875577        1.4191439671
 C        -5.5722808105        1.8984867546        0.4346516458
 O        -5.0153892486        2.3374906626       -0.5979882507
 C        -7.0257450923        2.1490817332        0.6845159392
 C        -5.5626027720        0.7145326481        2.7574572575
 C        -3.3995329364        1.4916684646        1.7499959705
 C        -5.0607485098       -5.0399989776        0.4815031188
 C        -2.8432432892       -6.0123040427        0.7423046042
 C        -6.1749567200       -7.1531227098       -6.2264559345
 C        -3.6700385199       -6.5317664745       -6.4649107011
 C        -7.0802226050        0.3267778914       -4.9427888538
 C        -6.4899669500        1.0458030869       -7.3591635940
 C        -0.1074884502        0.0727480290       -4.1402243744
 C         0.5805002040       -1.2283302591       -6.1261253284
 C         1.3752108080       -6.4984762132       -1.8792345684
 C         3.6115658242       -5.1323608796       -1.8377751338
 C         1.2849137707       -7.5247636999       -7.0316108091
 C         2.3983349936       -6.7540400627       -9.1148232983
 C        -4.7682779894       -3.1934062963      -10.7640955715
 C        -4.3559870654       -5.4906037745      -11.3589009159
 C        -1.3672825406       -0.2800533821      -16.3772207459
 C        -3.2522066858        1.3362849583      -15.9091349139
 C        -5.7753801168       -2.2343308385      -22.2091685340
 C        -4.3939452531       -0.3052239344      -23.2155446317
 C        -9.7887826080        4.1888667637      -21.8027302236
 C        -8.5404326570        4.6210119500      -24.0515365819
 C        -4.1991099913        4.8399039594      -18.8019443729
 C        -2.8587007830        6.8074802653      -19.7171747732
 H        -0.0784399854        5.5925090359      -19.2621931411
 H        -0.6247230088        6.2095262913      -20.8949529117
 H         0.3156503202        4.7784787512      -20.7793326323
 H        -4.6202848790        7.0902607940      -21.8097384179
 H        -5.6118800196        6.1762673340      -20.6273166173
 H        -5.5970806868        4.8967132052      -23.3080106245
 H        -6.4502686918        6.3917426856      -23.1671514813
 H        -9.4668177901        1.3998767392      -21.9384752477
 H        -8.2141928109        2.2291096482      -20.7851496392
 H        -7.8881214543       -0.5125001442      -22.4705139240
 H        -8.1838131652       -0.2236447063      -20.7617961963
 H        -4.9547512555       -2.6342586048      -19.7122769230
 H        -5.4852635159       -1.1347407501      -19.1161826703
 H        -2.6047730573       -1.9891723010      -19.0344584714
 H        -3.6357790937       -2.5141751254      -17.8161566520
 H        -2.1680636449       -1.8401451288      -14.3104370128
 H        -2.6320685764       -3.0631006181      -15.5419815943
 H        -4.5388692376       -3.7823007325      -14.1194336104
 H        -4.4644228524       -2.2906069911      -13.3110619398
 H        -1.8520503579       -6.2012563134      -10.5309406793
 H        -2.1590778750       -5.7737065496       -8.9250786698
 H         0.1129485401       -4.0756100189       -9.7015949224
 H         0.3830400526       -5.6672523305      -10.4111076672
 H         4.4718894388       -5.5192572419       -6.9143451594
 H         3.5734851800       -7.0529904724       -6.4253124549
 H         3.5874242725       -4.3631654339       -4.7510572575
 H         4.7300322749       -5.6200517339       -4.5201709200
 H         0.3071023903       -3.6494568003       -1.2036720503
 H        -0.4950481252       -4.6138532966       -2.4021593529
 H         0.0264613662       -1.5683949359       -2.4362607696
 H        -1.4028603654       -2.1108204794       -2.3971384857
 H        -1.5562483451        1.5650409329       -6.2996330714
 H        -2.4338444325        1.2365892362       -4.7529978489
 H        -3.4943301635        0.5204614325       -7.4273971816
 H        -3.9577031850        2.0575952365       -6.4304859017
 H        -7.9813965662       -2.3919719802       -5.5652909299
 H        -6.2728894936       -2.3181136228       -5.0350996768
 H        -7.2293932781       -4.1359297867       -7.3600334429
 H        -7.4378227121       -4.6072067989       -5.7403766562
 H        -3.4475824127       -7.3308490117       -3.8370749528
 H        -5.1310330061       -7.9495470231       -3.6890863448
 H        -4.2813701321       -7.4699004849       -1.4206804840
 H        -5.5642355248       -6.3341427453       -1.8086375816
 H        -5.0700748264       -2.6605506930       -0.3389364346
 H        -3.9002788898       -2.1095650295       -1.5106706757
 H        -2.8008846104       -0.7764724504       -0.0485115124
 H        -3.0725609487       -1.6380717196        1.4170580357
 H        -7.5385426864        1.2808340539        1.1298444808
 H        -7.5267987356        2.1298942378       -0.2595446851
 H        -7.4284959256        3.0581879596        1.1657751774
 H        -6.2277903975        1.5973644305        2.8487649458
 H        -4.7872238224        0.4817681172        3.4427370473
 H        -6.1298472287       -0.1817689099        2.6963082030
 H        -2.8101665826        0.8668455269        2.3805881837
 H        -3.3872418183        2.3450294283        2.3919461579
 H        -2.8356841512        1.6427927460        0.8332090250
 H        -5.5564951651       -6.0145669115        0.5400269358
 H        -5.7933479686       -4.4188792835       -0.0602413781
 H        -5.0818049012       -4.6844460987        1.4392620135
 H        -3.3508875942       -6.9776020428        0.8970269145
 H        -2.6269165867       -5.5256154866        1.6808414088
 H        -1.8489475192       -6.2975275450        0.4510795693
 H        -5.7483689861       -8.0428026620       -6.6951924065
 H        -6.9337544034       -6.7460492477       -6.9256222293
 H        -6.7345670016       -7.5113038870       -5.3932005566
 H        -3.6581295250       -6.4116171156       -7.5578980632
 H        -3.4616308444       -7.5247617023       -6.2303260256
 H        -2.9052984923       -5.8956311140       -5.9955368886
 H        -6.6587109371       -0.1122608029       -4.0587577416
 H        -8.1076147078        0.1422676165       -5.0289053180
 H        -7.2405156791        1.4213028014       -4.7160283969
 H        -5.6726879597        0.8959367089       -8.0995363844
 H        -6.3556460235        2.0508865873       -7.0007309332
 H        -7.4574287084        0.8725492657       -7.6618740384
 H        -0.0192027749        0.9991525680       -4.7359012886
 H         0.9204420341       -0.0567507188       -3.6442339069
 H        -0.7779917059        0.1609379989       -3.2369112202
 H         1.4135065839       -1.5598153064       -5.4945586129
 H         0.6654172449       -0.3224672015       -6.7796723165
 H         0.3543407410       -2.1347645809       -6.5847736391
 H         1.9578847544       -7.2906992371       -1.4506455517
 H         0.6069795863       -6.9634671957       -2.4982453851
 H         0.9227408511       -6.0651254656       -1.0488673446
 H         4.2565804750       -4.5013360819       -2.6025044819
 H         4.0936631201       -6.0472136917       -1.5790478139
 H         3.3413874400       -4.6360398714       -0.9349300963
 H         1.0703685791       -7.2981742211       -5.9749062562
 H         2.0731073418       -8.2795061613       -6.9117563700
 H         0.4493827901       -8.1006427036       -7.3541686671
 H         3.2715494876       -7.3789045672       -8.7137821881
 H         2.8452637328       -5.8461558539       -9.6806972826
 H         1.7195083670       -7.3529127488       -9.6721763972
 H        -5.1999815704       -3.3566169974       -9.7833066267
 H        -5.5120979564       -3.4215482461      -11.5076969232
 H        -4.4975851232       -2.1205110766      -10.9134712338
 H        -5.0275184610       -5.5871854541      -10.5540930220
 H        -3.6714850348       -6.2724042058      -11.4539401288
 H        -4.9141665165       -5.4289118972      -12.2775843109
 H        -0.8933614218        0.5493206273      -16.8387035749
 H        -1.0220363531       -1.1869283893      -16.8879911004
 H        -0.9589795172       -0.2318572426      -15.3112890347
 H        -2.8009579758        1.2921606555      -14.8938423258
 H        -4.3135484655        1.5108761040      -15.6640068557
 H        -2.8172160880        2.1716699353      -16.5223243707
 H        -5.1058256671       -2.9630753497      -22.6620781824
 H        -6.5647997440       -2.0408485159      -22.8520997114
 H        -6.2422533837       -2.7406290165      -21.3224112051
 H        -3.3703888683       -0.7662294416      -23.3787455923
 H        -4.2323135800        0.7448475407      -23.1581477101
 H        -5.0363094978       -0.5477314997      -24.0604464059
 H        -9.7056238391        3.9567314447      -20.7423633540
 H       -10.4793516778        3.4100260972      -22.1948184888
 H       -10.2694627175        5.1493468439      -21.8327984170
 H        -8.9801784774        5.6395002285      -24.0546914436
 H        -9.3543405278        4.0982084008      -24.5434556372
 H        -7.7271995642        4.5020966560      -24.7046411389
 H        -4.4523124056        3.7459691504      -19.0010416482
 H        -5.0560441537        5.5030779106      -18.7711838251
 H        -3.7396015696        4.6726265399      -17.7703604535
 H        -2.5168437759        7.2120033588      -20.6334024591
 H        -2.1797034325        7.0595618749      -18.9584644142
 H        -3.7972425216        7.1712011612      -19.4203771017
 Na       -3.6288784896        2.0262675967      -20.6505055874
 Na       -1.9406243657       -3.5602349876       -7.0671823194
