232

 C        -0.6218330434        5.5064966652      -20.0496290620
 C        -1.9296243086        4.6709939783      -19.9945936107
 O        -1.7439203908        3.4580155716      -20.0528428885
 C        -3.3322978937        5.3863971035      -19.9321054560
 C        -4.1394249640        5.0325584093      -21.2730541888
 O        -4.0785893990        3.8663495148      -21.6384761830
 C        -4.9508816668        6.0651373946      -22.1729145104
 C        -6.1276068660        5.3970121085      -22.9628932934
 C        -7.1757249702        4.6995016513      -21.9946795213
 O        -6.8600475066        4.5503831709      -20.8060650357
 C        -8.3338179256        3.8498603952      -22.6903716763
 C        -7.9845674155        2.3046543397      -22.7272773369
 O        -7.2679232315        1.8717311453      -23.6376126157
 C        -8.5426864647        1.4081447369      -21.5541611608
 C        -7.8935036276        0.0597035159      -21.8406709452
 C        -6.3306674411        0.2562708132      -21.7560935137
 O        -5.8724267290        1.1863406244      -21.1155567151
 C        -5.2919613047       -0.8431876854      -22.1891847618
 C        -4.3204639804       -0.9854970413      -20.8570814870
 O        -3.2135690008       -0.4330401745      -20.7975405309
 C        -4.8627384359       -1.6673720658      -19.5864228054
 C        -3.9602899174       -1.4771999395      -18.3283853213
 C        -3.6985528746       -0.1083948512      -17.7612019874
 O        -4.0355310982        0.9329239844      -18.3518633203
 C        -3.1002903799       -0.0961324005      -16.2670991259
 C        -3.8009979317       -1.1283327036      -15.3993107415
 O        -5.0323412123       -1.1254284596      -15.3219117662
 C        -2.9829441734       -2.1586076534      -14.6807229285
 C        -3.8260824944       -2.6638881591      -13.5611029621
 C        -3.0553031172       -3.5036154328      -12.6279280637
 O        -1.9212185755       -4.0026575371      -12.8802092139
 C        -3.7500202794       -3.9015431959      -11.2977127532
 C        -2.5444978848       -4.0672038370      -10.1592443318
 O        -2.0617751962       -3.0438112551       -9.7341031431
 C        -1.7338534874       -5.3987371577       -9.8308575703
 C        -0.3167454948       -5.0551170427       -9.5715513501
 C         0.1367045647       -5.5418985788       -8.1950654238
 O        -0.5216924269       -5.3159611943       -7.1944743822
 C         1.4619883801       -6.2987222863       -7.9806518189
 C         2.3378965657       -5.3420689418       -7.0304604885
 O         2.2159012977       -4.1478331463       -6.9966815639
 C         3.6755625012       -5.7929019921       -6.3362522325
 C         3.7439818731       -5.2399969145       -4.8593826077
 C         2.7806886965       -6.0807299760       -3.9809997629
 O         2.4388170311       -7.1348489654       -4.3862093226
 C         2.1855913017       -5.4970571420       -2.6252566354
 C         1.5745907531       -4.1437645749       -2.8373179718
 O         2.1241073418       -3.2798847504       -3.4555645462
 C         0.1310947413       -3.8856092572       -2.3626860510
 C        -0.3156007560       -2.4903014094       -2.7702221003
 C        -0.5538583542       -2.4011821878       -4.2647969845
 O        -1.0240346626       -3.3484329715       -4.8902321561
 C        -0.2344323159       -1.1547192113       -5.0459848112
 C        -1.5797863125       -0.5668359722       -5.8332966640
 O        -2.0063310084       -1.1105715549       -6.8703509294
 C        -2.1113961787        0.8162251963       -5.5042300064
 C        -3.5507355915        0.9992103934       -6.1177998491
 C        -4.6120068830       -0.0055376194       -5.5615815627
 O        -4.3247575675       -0.8581687659       -4.8208945499
 C        -6.2172620224       -0.0564485652       -6.1084844288
 C        -6.2959718884       -1.3446642031       -6.8550883076
 O        -6.1411543088       -1.4598252249       -8.0839807122
 C        -6.4180991843       -2.5819961441       -6.0098604523
 C        -6.4293880285       -3.9148315843       -6.7722424841
 C        -4.9639961130       -4.5078651042       -6.5969989308
 O        -4.0389674952       -3.7623737561       -6.8918139473
 C        -4.7298872020       -5.9424864217       -5.9436584138
 C        -5.0971440484       -5.8206760906       -4.4043281173
 O        -5.5406425237       -4.7909594082       -3.9410834354
 C        -4.7199900092       -7.0753651589       -3.5460575666
 C        -4.8188641935       -6.7096234542       -2.0240849131
 C        -3.7232707546       -5.6945753019       -1.6814461442
 O        -2.9484096935       -5.2707239161       -2.5310680659
 C        -3.5930227844       -5.1109122506       -0.2113119774
 C        -2.9950594567       -3.6829505913       -0.2452190017
 O        -1.8171852022       -3.5557526238        0.0704092666
 C        -3.8112441514       -2.4237778911       -0.6959412415
 C        -3.6434165629       -1.1653723049        0.1491863808
 C        -4.9296237582       -0.5089984429        0.7594464958
 O        -6.0242039543       -1.0054801553        0.5413859852
 C        -4.8705813430        0.9068953074        1.5922435416
 C        -5.8775229426        1.7521298083        0.7491963244
 O        -5.4648871875        2.6586752686        0.0224396201
 C        -7.3394121745        1.5081740024        0.7942756713
 C        -5.3523882089        0.6570782486        3.0918952163
 C        -3.4672093999        1.4989771676        1.5452308296
 C        -4.9104117288       -5.0838502626        0.7020537426
 C        -2.5999484744       -6.0747162178        0.4522905239
 C        -5.7637194032       -6.8501580357       -6.6743612614
 C        -3.2396812175       -6.3957308053       -6.1411603068
 C        -7.0321580922        0.0123584893       -4.8249432311
 C        -6.3553685736        1.0649040085       -7.2433788506
 C         0.4836513011        0.0458256782       -4.3445224390
 C         0.8181128904       -1.6406457734       -6.0655866091
 C         1.1706453236       -6.4884401094       -2.0538830426
 C         3.4417392371       -5.2310627892       -1.6972839055
 C         1.2846733448       -7.6725583960       -7.4033619667
 C         2.2048627686       -6.5708781735       -9.3374612940
 C        -4.8416024433       -3.0766209280      -10.7581618452
 C        -4.4055246473       -5.3618253666      -11.6034654338
 C        -1.5881339374       -0.1540862205      -16.2479352837
 C        -3.4388916020        1.2414470503      -15.4591555129
 C        -6.0718493164       -2.1178165011      -22.7680524013
 C        -4.5066207357       -0.1743644017      -23.2964568909
 C        -9.6787250552        4.1466219863      -21.9609791212
 C        -8.4500233183        4.2828110711      -24.2008927072
 C        -4.0707933794        4.6135653534      -18.8419451374
 C        -3.2854013001        6.8772009233      -19.6529814901
 H        -0.4012249600        6.0227359985      -19.1921869045
 H        -0.7205221433        6.2209093950      -20.8918134826
 H         0.2721687508        4.8593231094      -20.2074507378
 H        -4.2035884883        6.4657005462      -22.8431962574
 H        -5.3080142900        6.8678793894      -21.6002713071
 H        -5.7493657564        4.5315983486      -23.5417863325
 H        -6.5231247932        6.2652379931      -23.5693834838
 H        -9.5905190212        1.2281764298      -21.5600155213
 H        -8.1333704209        1.9790404953      -20.7130202925
 H        -8.1194308762       -0.3638050820      -22.8457970188
 H        -8.1713133699       -0.7023098204      -21.1129484640
 H        -5.1904495072       -2.7150206809      -19.7392459206
 H        -5.8782651670       -1.1652755858      -19.2590091167
 H        -2.9688645786       -1.9263371773      -18.4105664629
 H        -4.3843844446       -2.1580969279      -17.4976041185
 H        -2.0216068164       -1.6961355618      -14.3241052514
 H        -2.6173511732       -2.9303485907      -15.3678578898
 H        -4.7814131857       -3.1518629899      -13.8232509679
 H        -4.1637390009       -1.7344135677      -13.0163042224
 H        -1.8671986543       -6.1545798428      -10.6217662221
 H        -2.2765742464       -5.8509864961       -8.9944083905
 H        -0.0095530840       -4.0206225570       -9.6393654990
 H         0.3606707568       -5.4606352345      -10.3513263513
 H         4.3752276010       -5.3164827202       -6.9273190786
 H         3.8336523779       -6.8935070608       -6.3886799026
 H         3.4104501339       -4.1582957054       -4.8201734670
 H         4.7588368689       -5.2978245021       -4.4205358174
 H        -0.0168195954       -4.0716706594       -1.2559219180
 H        -0.5783037764       -4.5741680449       -2.9557509738
 H         0.3291619349       -1.6187287862       -2.5745861813
 H        -1.1833052985       -2.1006784327       -2.1596996042
 H        -1.5563589078        1.6469230227       -6.0173440250
 H        -2.1273576189        0.9884228865       -4.4207646521
 H        -3.4473604743        0.9161871189       -7.2726734198
 H        -3.9258854621        1.9803595511       -5.8110736462
 H        -7.3676663138       -2.4265665074       -5.5268752201
 H        -5.5626847225       -2.5271749676       -5.2647681347
 H        -6.6781201324       -3.8235293610       -7.8900949810
 H        -7.2144280883       -4.5716796497       -6.3446661323
 H        -3.6860023327       -7.3500776471       -3.8137910798
 H        -5.4303847336       -7.8811542764       -3.8211229943
 H        -4.6018563540       -7.6205637051       -1.4371640513
 H        -5.7609447806       -6.1411087090       -1.7583644364
 H        -4.8912254804       -2.6295575888       -1.0004720486
 H        -3.1945566723       -2.2716181096       -1.5851559104
 H        -3.3438514557       -0.2991295579       -0.5292594926
 H        -2.8479963901       -1.1280273683        0.9209772228
 H        -7.7194594064        0.9607310328        1.6539643230
 H        -7.8140499318        1.0777511502       -0.1044234237
 H        -7.8565780901        2.4554098974        0.9204476143
 H        -5.0591901742        1.6256506097        3.5666792170
 H        -4.8463754046       -0.2310010147        3.4858336197
 H        -6.3778051022        0.3786147046        3.1679519547
 H        -2.5857231674        0.8746420339        1.7273255440
 H        -3.3338153063        2.1916242385        2.3958478739
 H        -3.2450687458        2.0142622122        0.6064081577
 H        -5.3055540949       -6.0575602684        0.9056790591
 H        -5.7772715566       -4.5815314320        0.2263357494
 H        -4.8206094681       -4.5950654299        1.6639180611
 H        -2.7850527857       -7.1549230278        0.3794567488
 H        -2.3541209606       -5.7958982487        1.4332225915
 H        -1.6330242328       -6.0071539078       -0.0491960025
 H        -5.3139629668       -7.3975472762       -7.5380076374
 H        -6.7008435905       -6.4236025081       -7.0779106781
 H        -6.0660333470       -7.5702967489       -5.9898443185
 H        -2.9084657593       -6.5456034380       -7.1910744012
 H        -3.1985363608       -7.4174252579       -5.7120417739
 H        -2.4773910397       -5.7828181611       -5.5812938647
 H        -6.9063497051       -0.8775455813       -4.1520124373
 H        -8.1006178748        0.1043454844       -5.0152414466
 H        -6.7581971253        0.8859323997       -4.1379306437
 H        -5.8788277727        0.7280431524       -8.2457895106
 H        -5.9033853881        2.0011503686       -6.9760460812
 H        -7.4332658180        1.1598137172       -7.2088257960
 H         0.6783076445        0.8715450980       -4.9969936255
 H         1.4315009153       -0.3565059926       -3.9592740821
 H        -0.0763589559        0.4864282762       -3.5795779043
 H         1.7623258722       -1.8439912060       -5.5582527906
 H         0.9363216209       -0.6219091776       -6.5907115482
 H         0.4830835315       -2.4627542538       -6.6681289325
 H         1.5500368178       -7.5455821092       -2.1778307037
 H         0.2194670829       -6.4048210544       -2.6778681197
 H         0.8376145982       -6.3405305356       -1.0664598646
 H         3.9342857266       -4.2511441899       -2.0764695006
 H         4.0443989287       -6.0558776147       -1.7749813932
 H         3.0847518787       -5.1809931393       -0.6847702377
 H         0.4674913555       -7.6793140897       -6.6658189365
 H         2.1667632909       -8.0763547168       -6.8327988259
 H         0.9412609941       -8.4170814880       -8.0874496983
 H         3.1738971005       -6.9524849867       -9.1072120032
 H         2.4349803112       -5.6633222683       -9.8841811185
 H         1.5414288650       -7.1359092156       -9.8352213484
 H        -5.2444931855       -3.6212522611       -9.9407859129
 H        -5.6387235023       -2.9595825585      -11.4459856350
 H        -4.4543790847       -2.1240302262      -10.2590398818
 H        -4.4040676716       -5.9259785544      -10.6009817551
 H        -3.8199195061       -5.9700454934      -12.3267993322
 H        -5.4648139190       -5.1921423470      -11.8461850134
 H        -1.2372544510        0.4949688359      -17.0423863130
 H        -1.1685877552       -1.1532181832      -16.4744506065
 H        -1.1911643648        0.1233612280      -15.2788281816
 H        -3.2467316454        1.2025682291      -14.4055177103
 H        -4.4655949501        1.2871693419      -15.3863218357
 H        -2.9744528452        2.0937698786      -15.9412020783
 H        -5.3751229621       -2.9910719246      -22.9836813391
 H        -6.6536334305       -1.9362681050      -23.5839721102
 H        -6.7100386004       -2.5572946211      -21.9491825232
 H        -3.7856786149       -0.8876956135      -23.7067695693
 H        -3.8918653661        0.5678116601      -22.7678352061
 H        -5.0563448977        0.3734807256      -23.9918517006
 H        -9.5909829980        3.9768479525      -20.8586409895
 H       -10.5561566380        3.6343463009      -22.2618984447
 H        -9.8535303367        5.1775206606      -22.0946668156
 H        -8.5907111975        5.3370103995      -24.3785560922
 H        -9.4121018169        4.0040303264      -24.6184758191
 H        -7.6587908838        3.8787924359      -24.8613793595
 H        -4.3099951485        3.5925489635      -19.1521744415
 H        -4.9995922012        5.0313275927      -18.6968872170
 H        -3.4190804033        4.5646996176      -17.9370838467
 H        -2.4141283595        7.3561644324      -20.1340881871
 H        -3.2209888079        7.0422667508      -18.5350836328
 H        -4.3053044732        7.1623806204      -19.9656948281
 Na       -3.5469204412        1.7343300810      -20.3293484964
 Na       -1.9001788843       -3.4233997350       -7.2221093286
