232

 C        -1.1516079913        5.6159106073      -20.1417408166
 C        -2.4042603112        4.7130083075      -19.9625432625
 O        -2.1700811742        3.5100535013      -19.9514363786
 C        -3.8425371804        5.2367292509      -20.1032593668
 C        -4.3236898437        4.7248247223      -21.4765934896
 O        -4.3619341986        3.5411650088      -21.7986683517
 C        -4.9288769668        5.7343051306      -22.4064766619
 C        -5.9188015366        5.0544204593      -23.4106550574
 C        -7.1139733106        4.6264995808      -22.4566198870
 O        -6.8421288484        4.6299261536      -21.3171612604
 C        -8.3988879626        3.8891563102      -23.0273328927
 C        -7.9681602281        2.3752029114      -23.0599416626
 O        -7.1410852197        1.9515630908      -23.8224135448
 C        -8.5286879833        1.5040823879      -21.8757473138
 C        -7.8608535859        0.1632760802      -21.7998844001
 C        -6.3522230554        0.3848385179      -21.4988409761
 O        -5.9693201750        1.3729039882      -20.8936689007
 C        -5.4375620324       -0.7112797295      -22.0873017742
 C        -4.4379631127       -0.9155013038      -20.8241145820
 O        -3.2937816231       -0.4825008644      -20.8537695134
 C        -4.9988214601       -1.5524841036      -19.5092195072
 C        -4.0916438291       -1.4705256796      -18.2521365857
 C        -4.0606276138       -0.0243924499      -17.6703479427
 O        -4.4771557267        0.8841866176      -18.2962096302
 C        -3.4003032702        0.2016754475      -16.2997589961
 C        -4.0245497267       -0.8506632315      -15.2561249273
 O        -5.2035022122       -1.0511122206      -15.2881399782
 C        -3.1143540206       -1.7393819804      -14.3750228504
 C        -3.8007609589       -2.1928802278      -13.0634556015
 C        -3.2846645953       -3.5891731455      -12.4767450058
 O        -2.4906706410       -4.2092691851      -13.0556819256
 C        -3.7733317554       -4.0861719714      -11.0100019698
 C        -2.5278650310       -4.0796459769      -10.1542741386
 O        -2.3846931891       -3.2014299106       -9.3068441597
 C        -1.4848785554       -5.2732292976      -10.4114379940
 C        -0.0683413934       -4.9704552473       -9.9091701187
 C         0.3611245666       -5.7358653904       -8.4694315602
 O        -0.4106616725       -5.7768114028       -7.5325764279
 C         1.7382997989       -6.4028769790       -8.2526446486
 C         2.4463852085       -5.4629771988       -7.1032231843
 O         2.0795312069       -4.3020921208       -6.9937904789
 C         3.5973035379       -5.8701395018       -6.2122672887
 C         3.5236837266       -5.3741587192       -4.8097339672
 C         2.4004523874       -6.0847685686       -4.0619250450
 O         1.7550253326       -7.0512300458       -4.5214985796
 C         2.1057180017       -5.5447518487       -2.6272591261
 C         1.5314866406       -4.1001196004       -2.8696956951
 O         2.1889746663       -3.1646865361       -3.3554623597
 C        -0.0272572017       -3.8310898607       -2.5763029352
 C        -0.2535589381       -2.4225108100       -2.9051233173
 C        -0.3232517245       -2.2995542023       -4.4726636992
 O        -0.7177181927       -3.1951051316       -5.1802076461
 C         0.1589388887       -0.9816544218       -5.1289512563
 C        -1.1919131548       -0.3972199378       -5.8040420648
 O        -1.4708524499       -0.7575211904       -6.9130987005
 C        -1.9161801489        0.6067992753       -5.0346939079
 C        -3.3403296000        0.9199169095       -5.5807751114
 C        -4.4207934406       -0.0534581172       -5.0797066267
 O        -4.2745345603       -0.7537798455       -4.0402239638
 C        -5.7574389788        0.0264491271       -5.8752261823
 C        -5.8245423984       -1.2655100974       -6.8000200425
 O        -5.9130658582       -1.1583646517       -7.9685027989
 C        -6.2594201165       -2.6303582030       -5.9965915276
 C        -5.9700081556       -3.8264571637       -6.8765030570
 C        -4.4646358406       -4.4045764655       -6.6232793030
 O        -3.5373279032       -3.7621031216       -7.0077511495
 C        -4.4085581646       -5.7299660381       -5.7410505474
 C        -5.3177166737       -5.7480762105       -4.4423423359
 O        -6.1527340239       -4.8956949789       -4.2369032311
 C        -5.0992762551       -6.9004090934       -3.4509839578
 C        -5.1384616440       -6.2755865550       -2.0025122813
 C        -3.7505662326       -5.7001957728       -1.6575644859
 O        -2.9121713503       -5.5784448267       -2.5385297797
 C        -3.4450936694       -5.2242920528       -0.1963988977
 C        -3.0661683177       -3.6758675154       -0.3662159746
 O        -2.0039722929       -3.2799703157       -0.0355049407
 C        -4.1008631455       -2.6480772769       -0.9487047192
 C        -3.9742452069       -1.1955757627       -0.3087969418
 C        -5.0046514573       -0.8367156889        0.6895517614
 O        -5.9610517368       -1.5365217321        0.8852107089
 C        -4.8772030727        0.5521786515        1.4872367726
 C        -6.2219342929        1.5365777389        1.1093085675
 O        -6.1018694678        2.7025149459        1.2495934395
 C        -7.5597050756        0.8897355014        0.8927314019
 C        -4.8314232550        0.4234892015        3.1323087917
 C        -3.6440044392        1.4554757750        1.1249349381
 C        -4.5389820221       -5.3181702310        0.9101800847
 C        -2.1484015390       -6.0051387066        0.2206748021
 C        -4.9261718855       -6.8275728355       -6.6410924284
 C        -2.8981497033       -5.9461146560       -5.3917139278
 C        -7.0041816106        0.2667927992       -4.8493570311
 C        -5.9727696635        1.1819860284       -6.8626568617
 C         0.8454476840        0.0381622950       -4.1077696863
 C         1.2258878362       -1.4212730963       -6.3471209812
 C         1.1497063652       -6.4833296414       -1.8638635365
 C         3.5327424060       -5.6085476176       -1.8950176680
 C         1.5768675305       -7.8274080005       -7.5763433116
 C         2.7077522501       -6.5789867019       -9.4726386360
 C        -4.9030026849       -3.0363964060      -10.3422006939
 C        -4.4740234139       -5.4791575271      -11.2087741558
 C        -1.8689151510       -0.0523849648      -16.4783355662
 C        -3.6744396133        1.5928375089      -15.7460419351
 C        -5.9062417463       -2.1199565243      -22.4908199794
 C        -4.6522299284       -0.0169599126      -23.3072224508
 C        -9.7087669241        4.1625605647      -22.2209192701
 C        -8.5751405274        4.3230833970      -24.4177410983
 C        -4.4402538955        4.6255786663      -18.8517925016
 C        -3.7824489729        6.8062464729      -19.7589396177
 H        -0.8256765306        6.0918750943      -19.1533364953
 H        -1.4356098064        6.3983560580      -20.7873066459
 H        -0.2579344617        5.1172854739      -20.3541719597
 H        -4.1774032496        6.2141881622      -22.9778787160
 H        -5.2903652953        6.5483113160      -21.8564971161
 H        -5.5247672922        4.1036214669      -23.6744659259
 H        -6.2757511129        5.7859300460      -24.1107226500
 H        -9.5959927378        1.2220494408      -22.0620440346
 H        -8.4578776317        2.0608986224      -20.9463523850
 H        -8.0347049129       -0.5068607636      -22.6477859762
 H        -8.0788829656       -0.3846214793      -20.8500122242
 H        -5.0674293453       -2.6604884985      -19.7780287101
 H        -6.0621675107       -1.1823375711      -19.4231169217
 H        -3.0831444504       -1.8659051985      -18.6425424237
 H        -4.4229628344       -2.1823110109      -17.4994393649
 H        -2.1825502440       -1.2728569872      -14.1186062558
 H        -2.7488948917       -2.5881836344      -15.0333118648
 H        -4.9352466579       -2.2038192108      -13.1057729381
 H        -3.5929715799       -1.3517055795      -12.4295703332
 H        -1.5481377679       -5.5426001099      -11.4654400533
 H        -1.8707088815       -6.1757319357       -9.8908443701
 H         0.0706447238       -3.8880242192       -9.6887007237
 H         0.7896799637       -5.1094339300      -10.6154469177
 H         4.5121209817       -5.3265489913       -6.6213724414
 H         3.7680181631       -6.9632541449       -6.2584484437
 H         3.3889217453       -4.2778431997       -4.6726286848
 H         4.5081205150       -5.6389703341       -4.3440763013
 H        -0.2476617462       -3.9374744638       -1.4509987048
 H        -0.5824376595       -4.6097605864       -3.2112219621
 H         0.4939926761       -1.7612413206       -2.3766490643
 H        -1.2468605484       -2.0161110226       -2.5927366251
 H        -1.2305398606        1.5402487063       -4.9783915632
 H        -2.1407863687        0.3304788513       -4.0189952768
 H        -3.3106944825        0.8737419118       -6.6837126299
 H        -3.6708729460        2.0254512668       -5.2304912303
 H        -7.3676683392       -2.5457157973       -5.9258054319
 H        -5.7222077079       -2.6546040499       -5.0472641765
 H        -6.1520533291       -3.4978278299       -7.9294722452
 H        -6.6763232407       -4.6780274314       -6.6551001302
 H        -4.1553785062       -7.4757101098       -3.6867943287
 H        -5.9942108052       -7.5133901859       -3.5862878621
 H        -5.3491451828       -6.9913486025       -1.1956749790
 H        -5.8468619709       -5.3862281242       -2.0750805502
 H        -5.0257624265       -3.0697844532       -0.5842757543
 H        -3.9871742272       -2.6850913753       -2.1061301483
 H        -3.9793958331       -0.4227678546       -1.0906092743
 H        -2.9269331195       -1.1568682884        0.1700570497
 H        -8.1213789264        0.6019162518        1.7988698941
 H        -7.4974285045        0.0529787573        0.2615612251
 H        -8.2744733824        1.5373590686        0.3790565073
 H        -5.4083388718        1.2254579414        3.6269567034
 H        -3.8415061228        0.6174724746        3.4845818528
 H        -5.3557803463       -0.5470347605        3.3416732990
 H        -2.7385912046        1.2671492226        1.6319414643
 H        -3.9421441641        2.4945283173        1.2181328535
 H        -3.2431300676        1.4955822157        0.0884123969
 H        -4.7259641755       -6.4141730829        1.0992484474
 H        -5.5078425123       -4.9891266817        0.6043715865
 H        -4.2588744440       -4.9070411877        1.8770062973
 H        -2.3505717287       -7.0629550907        0.4315030369
 H        -1.7620273619       -5.6851726353        1.2277187788
 H        -1.3419241524       -5.9816119780       -0.5072477627
 H        -4.9216167543       -6.4115197213       -7.6304252293
 H        -5.9681376990       -7.0625853554       -6.4678952034
 H        -4.2912560954       -7.7827009371       -6.6866903758
 H        -2.2622659410       -6.1142363038       -6.3297319319
 H        -2.6650304518       -6.7777693938       -4.7284168329
 H        -2.4321973357       -5.0126183935       -5.0308414897
 H        -7.0936660298       -0.4278706392       -4.0170010045
 H        -7.9615138455        0.0327428503       -5.3600344846
 H        -6.7723248929        1.2800634801       -4.4902499527
 H        -5.5922112625        0.8421522279       -7.8020094044
 H        -5.6105726521        2.1876953642       -6.4259289347
 H        -7.0956000712        1.2491867756       -7.0272012813
 H         1.1336382114        0.9508996150       -4.5381601564
 H         1.7204627040       -0.4424712975       -3.7855512478
 H         0.2376833132        0.2786267027       -3.2198916479
 H         2.2542066450       -1.5492701192       -5.9357897500
 H         1.2818396547       -0.6748960914       -7.0996244013
 H         0.6711280433       -2.2472767957       -6.8758661744
 H         1.5922348214       -7.4657838264       -1.9409601525
 H         0.1396803808       -6.5326090496       -2.2157347394
 H         1.0738139465       -6.0467046835       -0.7773883646
 H         4.0064827277       -4.7586444898       -2.1667413560
 H         4.0326173074       -6.5392168231       -2.3443813237
 H         3.4035888312       -5.6340739693       -0.8276339276
 H         0.9966226447       -7.8791960584       -6.6445770983
 H         2.5608843607       -8.1687143114       -7.4042682993
 H         1.2043185025       -8.6298237082       -8.2533720360
 H         3.5701523084       -6.8816202098       -8.9516472406
 H         2.7933978500       -5.7093842874      -10.0180637509
 H         2.2765323868       -7.4348506427      -10.0228342925
 H        -4.7768685519       -2.9478989866       -9.2327231375
 H        -5.9635862212       -3.3269689033      -10.5573553968
 H        -4.7264840695       -2.0719779419      -10.6746748902
 H        -4.4722504575       -6.0665572170      -10.2607326913
 H        -3.8633795373       -6.1107622167      -11.9358388725
 H        -5.5486056105       -5.3997019624      -11.6482847908
 H        -1.6023506413        0.2167381930      -17.4759909533
 H        -1.7439416541       -1.1234323658      -16.4569837559
 H        -1.2145854041        0.4292567401      -15.6851134521
 H        -2.8028628032        1.8077080892      -15.1511167093
 H        -4.5435979360        1.7816376998      -15.0430617115
 H        -3.6751170507        2.3362857282      -16.4967196857
 H        -5.1875741647       -2.7238794596      -22.9240708782
 H        -6.5974892242       -1.9964823028      -23.4453594069
 H        -6.5127871280       -2.7086014542      -21.8182082438
 H        -3.7623086753       -0.5656646781      -23.4134195552
 H        -4.6825877387        1.0314798960      -23.2404402580
 H        -5.2564803456       -0.1657764825      -24.2426123230
 H        -9.4810814776        4.1958930129      -21.1992746065
 H       -10.5698180552        3.4636875044      -22.3216219549
 H       -10.1107301852        5.1371690203      -22.5425814233
 H        -8.1602920128        5.3239011525      -24.6871424827
 H        -9.6040207232        4.1567150570      -24.7995850880
 H        -8.0123625667        3.7353656057      -25.0977712032
 H        -4.4153157222        3.5696314625      -19.0087294110
 H        -5.5296752509        4.8407097280      -18.6556674455
 H        -3.8675678880        4.9664585360      -18.0687997424
 H        -3.2162778780        7.2393700565      -20.6371262047
 H        -3.2160530836        6.8923872689      -18.8169326641
 H        -4.8344899769        7.1843304019      -19.8004161552
 Na       -3.5303343909        1.6765673758      -20.3525144289
 Na       -1.2139831962       -3.4681443315       -7.3416547255
