232

 C       -19.6873965526       -4.9636478167       -5.3419645021
 C       -19.5267388280       -5.7639332859       -4.0062161295
 O       -18.4432319940       -6.2604350661       -3.7174172963
 C       -20.7924001583       -5.7694211561       -3.1625430121
 C       -20.2508446189       -5.5444301169       -1.7386530978
 O       -19.9286801502       -6.4663007653       -1.0452026069
 C       -20.0643490119       -4.0896327211       -1.3575134290
 C       -18.8833012969       -3.8438450195       -0.3369355609
 C       -17.5894679160       -3.5581896587       -1.0654560299
 O       -17.5680319743       -3.0754675868       -2.1532763918
 C       -16.2693268089       -4.1465735262       -0.3553141601
 C       -16.3539651475       -5.6226426745       -0.7705644284
 O       -17.1789252822       -6.3096285161       -0.2385325532
 C       -15.4653015417       -6.1702667985       -1.8916905973
 C       -14.7920927210       -7.5723959358       -1.4569513175
 C       -15.0533212400       -8.6659902677       -2.5013232444
 O       -16.1987531667       -8.8319926747       -2.9538438920
 C       -13.8700137461       -9.6876437804       -2.8048420616
 C       -12.7038654207       -8.9146081221       -3.4027813145
 O       -13.0452612457       -7.9527309104       -4.0587406631
 C       -11.3122681895       -9.6134122238       -3.4524471733
 C       -10.3288051306       -9.2811513347       -4.6402079882
 C        -8.9389581931       -9.9839520492       -4.5303006907
 O        -8.7234485210      -10.7253012809       -3.6367904116
 C        -7.7302987321       -9.5340938779       -5.5654676135
 C        -7.7194727720       -7.9881782771       -5.6719208939
 O        -8.5313167713       -7.3223743272       -4.9995501838
 C        -6.7579361127       -7.2363051540       -6.5866441939
 C        -7.1157321720       -5.8163874821       -6.7479386749
 C        -8.2290189287       -5.6483340345       -7.7635877496
 O        -8.9169977259       -6.5716279772       -8.1605544168
 C        -8.2831155714       -4.1592131970       -8.3954009928
 C        -7.0324690677       -4.0834970931       -9.3344255240
 O        -5.9373570184       -4.3248628147       -8.8420622838
 C        -7.1586040498       -3.8358404734      -10.7498803281
 C        -5.7802906159       -3.5300826717      -11.2733703785
 C        -5.8978466332       -2.9370196373      -12.7244801645
 O        -6.8786647465       -2.4311824217      -13.1760624670
 C        -4.6265539358       -3.0689359998      -13.6458245257
 C        -3.3346075867       -2.3328647548      -13.0210625946
 O        -3.3733132416       -1.7657020880      -11.9676017775
 C        -1.9795277038       -2.3508036336      -13.7977340844
 C        -0.7990064378       -2.4182712689      -12.6635267111
 C         0.5525644846       -2.0463560445      -13.1982902349
 O         0.6093734094       -1.1633771503      -14.0674760910
 C         1.8911056182       -2.5255824907      -12.6170610973
 C         2.8145277432       -1.2816652687      -12.0663859664
 O         3.9617243467       -1.5284140578      -12.0007322277
 C         2.0904830912       -0.0404694548      -11.5012787731
 C         3.1872569783        0.7957478849      -10.7417049179
 C         2.9461352819        2.3905399145      -11.1617442662
 O         1.9608071954        2.5908207051      -11.8652081873
 C         3.8901053942        3.6293199060      -10.6373451434
 C         4.5093179423        4.3496976692      -11.8725580084
 O         5.6313848853        3.9437603962      -12.2505701924
 C         3.6544118983        5.3622728959      -12.7316660984
 C         4.0209993525        6.8193094673      -12.3252168460
 C         5.4053185587        7.0063276469      -13.0884285560
 O         5.5454325423        6.5701136272      -14.1632910313
 C         6.6723169062        7.7280108407      -12.4443611898
 C         7.7901287231        7.6178255429      -13.4044280553
 O         8.1671280262        8.6617704467      -13.9427028372
 C         8.6389905589        6.3585573034      -13.6783187216
 C         9.2292771958        6.2626388026      -15.1080691209
 C         8.3590530367        5.8709510001      -16.3028431756
 O         7.4306728425        5.0841140962      -16.0590822818
 C         8.6382691191        6.2576066345      -17.7049212576
 C         9.6574865529        5.0103428581      -18.0744440699
 O        10.2332156645        4.2897750852      -17.2766996432
 C         9.9854609775        4.8119872506      -19.5924007158
 C         9.6766211003        3.3139269988      -20.0898507365
 C         8.2920895064        2.7161266424      -19.6951470338
 O         7.5132521932        3.3755354678      -18.9790644245
 C         7.7489375650        1.3333328042      -20.1206472691
 C         7.9373570360        0.4304109404      -18.9237015809
 O         8.5894101212       -0.5940874588      -18.9652667693
 C         6.9733089317        0.6835191383      -17.8107880151
 C         7.8649434406        0.5529265334      -16.5429687466
 C         7.2101068786        1.3099377018      -15.2897829945
 O         7.4292382030        2.4644799352      -15.0564431525
 C         6.0879208385        0.5461235052      -14.4198451656
 C         4.7135017637        1.1925907223      -14.8391862679
 O         4.5339653952        2.3791401851      -14.6261283438
 C         3.6745571099        0.2336581652      -15.4634715158
 C         6.2136687077       -0.9651935832      -14.6617557365
 C         6.4296250309        0.8889551289      -12.9627896691
 C         6.3107389202        1.4982368566      -20.4970062538
 C         8.5578271735        0.6765420723      -21.3198325131
 C         7.2627917699        6.3400589077      -18.4024095990
 C         9.3205820013        7.6272056379      -17.9073276598
 C         6.4513033874        9.1879323427      -12.0493644609
 C         6.9788675764        6.8608831503      -11.1529769116
 C         2.8361766084        4.4568664831       -9.6406880569
 C         5.0523151910        3.0370711184       -9.7308833212
 C         1.7140786411       -3.4415113954      -11.3000828554
 C         2.8124684029       -3.3123464202      -13.5265529048
 C        -4.2213983430       -4.5662378165      -13.7415701378
 C        -4.8122937443       -2.6239296442      -15.1528850705
 C        -9.7121259327       -4.1487924705       -9.1061464678
 C        -8.3300160907       -3.2029182691       -7.2334284196
 C        -6.3785630143      -10.0545699680       -5.2324102354
 C        -8.3822944975      -10.0505740161       -7.0179076574
 C       -13.3874480382      -10.3933441338       -1.4971284242
 C       -14.3475804402      -10.8418394910       -3.7841247368
 C       -15.1131750644       -3.4433031254       -0.9605431461
 C       -16.3681089021       -3.9394431653        1.1255174043
 C       -21.9888514853       -4.8863993329       -3.5339211126
 C       -21.3060880958       -7.2520454357       -3.2527272717
 H       -19.3460472996       -3.9581954069       -5.0666069423
 H       -20.7512599430       -4.9650300254       -5.6880804250
 H       -18.9805213436       -5.4052180579       -5.9966676524
 H       -20.9786575835       -3.6173530093       -0.9301184043
 H       -19.8445908402       -3.6565696106       -2.3299832668
 H       -18.6505250062       -4.7535591167        0.2666027656
 H       -19.0956108729       -2.9616976555        0.2896821897
 H       -14.7175371266       -5.4363452794       -2.1418200553
 H       -16.0491142788       -6.2343922164       -2.8152365056
 H       -15.1280920087       -7.8955559167       -0.3997477826
 H       -13.7613334487       -7.4363533444       -1.2312885561
 H       -11.5640001401      -10.6676109082       -3.4191588290
 H       -10.9496367520       -9.2632151275       -2.4450325834
 H       -10.2029777015       -8.2419088483       -4.6858086974
 H       -10.7678520640       -9.5616220552       -5.6055429416
 H        -6.6805657573       -7.5696602303       -7.5834779090
 H        -5.8415603848       -7.3299524336       -5.9962825886
 H        -6.1990145443       -5.2571643926       -7.1453864050
 H        -7.4937105520       -5.3958499880       -5.8230198839
 H        -7.9006439683       -3.0400049363      -11.0093590065
 H        -7.5033735940       -4.8547928795      -11.2103772707
 H        -5.1569322287       -4.4336881187      -11.2905898381
 H        -5.2622382864       -2.7596766108      -10.7209140333
 H        -2.0985428653       -1.4503141091      -14.4195598186
 H        -2.0372288572       -3.0635612655      -14.5984643627
 H        -0.9222444800       -3.4077746522      -12.1881303261
 H        -1.1817765052       -1.7878711242      -11.9847418756
 H         1.2793423888       -0.3859723134      -10.7755312666
 H         1.6534518081        0.6519172724      -12.2512369067
 H         4.2634417780        0.6151771224      -10.8585955890
 H         2.9681654081        0.6484182970       -9.7201219702
 H         2.6823146991        5.0007860900      -12.3737428413
 H         3.6030888445        5.2865772568      -13.7749664807
 H         4.2443377102        6.9981599806      -11.3043645603
 H         3.3773475948        7.4483377397      -12.8309458529
 H         8.2599072844        5.3607786752      -13.3605110394
 H         9.6010761023        6.5807481020      -13.1395670721
 H        10.0202320281        5.4067938553      -15.0623597553
 H         9.6783860193        7.2664235549      -15.2868120167
 H        11.0855701665        4.9595278453      -19.6377815210
 H         9.4942716744        5.5033809843      -20.2785340205
 H        10.5585821426        2.6847192982      -19.7994145888
 H         9.6600280598        3.3504994318      -21.1515324179
 H         6.0867098508        0.0104657716      -17.7174589602
 H         6.4785003220        1.6614770413      -17.6274955334
 H         8.7737836223        1.0602502385      -16.8285761957
 H         8.0082590772       -0.4384603716      -16.2476459493
 H         4.3214391441        0.0357306118      -16.2726248960
 H         2.8658295653        0.7395506793      -15.8585980226
 H         3.3294477039       -0.7342368015      -15.0443142139
 H         5.3424524711       -1.5009124932      -14.2255511116
 H         7.1714319164       -1.2900345803      -14.2791069497
 H         6.2899927668       -1.0410893603      -15.7430089562
 H         5.6545080237        0.5141165891      -12.3003877581
 H         6.3868746048        1.9472517796      -12.7893503115
 H         7.4829837370        0.6871855102      -12.5776297347
 H         5.8912543668        0.5612716322      -21.0271853306
 H         6.1866548176        2.4227958083      -21.1563970824
 H         5.7170960543        1.8118897195      -19.5929561131
 H         7.9486048082       -0.0555246854      -21.7843973047
 H         9.5539811365        0.3698498829      -21.0632456245
 H         8.6162412057        1.3225316556      -22.1526654606
 H         6.6958718443        7.1123043222      -17.8564083239
 H         6.7562849133        5.3698147213      -18.2364891437
 H         7.2887193085        6.3954698020      -19.4836280165
 H        10.3915218476        7.7237293085      -17.6500428203
 H         8.6808720007        8.3863743056      -17.4289954220
 H         9.3916783508        8.0643797136      -18.9476341889
 H         7.2570337839        9.6253004965      -11.4280100016
 H         5.6237014366        9.2829435207      -11.2980173607
 H         6.0784882265        9.7896202838      -12.8343035315
 H         7.0760001591        7.5472708114      -10.2401822548
 H         7.9023930740        6.3518308577      -11.2663164781
 H         6.1664847686        6.1188311062      -10.9125245052
 H         2.9930910990        4.4419332905       -8.5982265857
 H         1.7491607866        4.2357140984       -9.6253573435
 H         2.8406535647        5.5769141698       -9.8854831485
 H         5.7893573878        3.8133373992       -9.4770266547
 H         5.6041615598        2.3389288681      -10.3952416851
 H         4.5829694682        2.4903947089       -8.8890239830
 H         0.9789496177       -3.1540797307      -10.4993094270
 H         2.7175583667       -3.6324181423      -10.8824308633
 H         1.3089320813       -4.4486471365      -11.5007462912
 H         2.3101135256       -4.2566472310      -13.7578498134
 H         3.7906028538       -3.4644750621      -13.0774199279
 H         3.0320745286       -2.7423166228      -14.4779741132
 H        -3.9912774118       -4.8305015771      -14.7855669694
 H        -4.9806094517       -5.2514152257      -13.4244139511
 H        -3.3721640065       -4.8359945457      -13.0737005383
 H        -3.9828112375       -2.2223107160      -15.7275258933
 H        -5.5683154695       -1.7638995473      -15.2044284517
 H        -5.3064255355       -3.4216884027      -15.7164340648
 H        -9.7072726412       -3.3643988442       -9.7907413311
 H       -10.4581536110       -3.9720016196       -8.3849751277
 H        -9.8738596726       -5.0955692965       -9.6784712198
 H        -9.1783723487       -3.2930014116       -6.5944670092
 H        -8.0706617207       -2.2052683536       -7.6246981402
 H        -7.4712556032       -3.4802102977       -6.6431423497
 H        -6.1988260914      -11.1045221158       -5.5180724683
 H        -6.1835016989       -9.9059516566       -4.1359032503
 H        -5.6067843799       -9.5416864893       -5.7966911302
 H        -8.7396869358      -11.0525072692       -7.0715833263
 H        -7.6212409118       -9.7917748620       -7.7821832014
 H        -9.3736324320       -9.5515822642       -7.1617135322
 H       -12.7461980027       -9.7950676180       -0.8906954669
 H       -12.8319499480      -11.2885915440       -1.9316173785
 H       -14.1162049900      -10.7289433508       -0.8165701537
 H       -14.9094393566      -10.3240229441       -4.5937079536
 H       -14.8911658172      -11.5190570559       -3.0820956299
 H       -13.4345864363      -11.2917229819       -4.2629569148
 H       -15.1135068189       -3.2698678216       -2.0397203512
 H       -14.1438404975       -3.9697668239       -0.8104261524
 H       -14.9975373126       -2.4951042726       -0.4277816364
 H       -17.3328591805       -4.2370233135        1.5712720882
 H       -16.2417595560       -2.9617446666        1.3400429547
 H       -15.4996072095       -4.4958612790        1.5677213483
 H       -21.7976406720       -3.8235157462       -3.4040801500
 H       -22.9349254809       -5.0880192233       -3.0821605568
 H       -22.3375920970       -5.0689609337       -4.6122317741
 H       -22.1053519753       -7.4018572667       -2.5141820785
 H       -20.5301176991       -7.9644037114       -3.0362812637
 H       -21.7519848889       -7.4803882740       -4.2244595481
 Na      -17.9987102851       -7.7571226008       -1.8421707644
 Na        5.8417949651        4.2532235168      -14.5556324273
