232

 C        -1.3532274031        5.5312349640      -20.0647695629
 C        -2.5964661585        4.6781735822      -19.9746406191
 O        -2.4443069904        3.4992382368      -19.6262940150
 C        -4.0823273200        5.0841114174      -20.3781147643
 C        -4.3444661311        4.6598298057      -21.8050059321
 O        -4.1610456506        3.4834734831      -22.1849267354
 C        -4.9723876920        5.6207369699      -22.7625022139
 C        -6.1014263289        5.0733881314      -23.5298279566
 C        -7.3296055167        4.7484959352      -22.6230822751
 O        -7.2912482039        4.9473660226      -21.4313946845
 C        -8.4948912433        4.0038472123      -23.3497113314
 C        -8.1481538193        2.5000877240      -23.2402839862
 O        -7.3860082582        2.1404654692      -24.1235847902
 C        -8.7116584584        1.6012848610      -22.0841872453
 C        -7.8960222695        0.2500773664      -22.0421605831
 C        -6.4093878914        0.4225778225      -21.5108958513
 O        -6.1061596456        1.3528738134      -20.7814435988
 C        -5.3488069858       -0.7214883847      -21.8637754752
 C        -4.4380888540       -0.9408038121      -20.5725028326
 O        -3.3311137701       -0.4532749409      -20.5356786299
 C        -4.9199438178       -1.8426639897      -19.3650165825
 C        -3.9616272403       -1.6945480383      -18.1422126198
 C        -3.9847981101       -0.2564445196      -17.6535285142
 O        -4.4545624612        0.6347748698      -18.3300968824
 C        -3.4502707930        0.0335018628      -16.2251120470
 C        -3.9937964057       -0.8064656513      -15.0893480594
 O        -5.1775821089       -1.1007583084      -15.0651359360
 C        -3.1104181763       -1.1732597498      -13.9929397263
 C        -3.7655865465       -1.9700347845      -12.7551305423
 C        -3.4434418747       -3.5043690297      -12.5640442325
 O        -3.0032569602       -4.2709754727      -13.3944000113
 C        -3.5234193881       -3.9939353044      -10.9940395080
 C        -2.0611126480       -4.0424957289      -10.4516743027
 O        -1.7645190445       -3.1186778305       -9.6866650128
 C        -1.1659518156       -5.3135467460      -10.8655025611
 C         0.2440966316       -5.0783864804      -10.4074028502
 C         0.3331073138       -5.6515345806       -8.9473954331
 O        -0.6339801015       -5.4852623261       -8.2168206775
 C         1.6182114635       -6.3558636061       -8.4502299789
 C         2.2657964054       -5.5003778785       -7.2995532807
 O         1.9040684123       -4.3187382828       -7.1975738249
 C         3.3040597388       -6.1460896350       -6.3883119306
 C         3.5140323310       -5.6483837782       -5.0296795213
 C         2.2756407706       -6.0766523244       -4.1449195011
 O         1.4432583676       -6.8505873360       -4.5968811172
 C         2.1156436313       -5.6241679802       -2.6171929282
 C         1.6376354719       -4.1271934757       -2.6250656594
 O         2.2939624141       -3.3207290076       -3.2998853712
 C         0.1273311355       -3.7485899721       -2.2614916785
 C        -0.2149810452       -2.3582256143       -2.7666284500
 C         0.0667100867       -2.3312907070       -4.3317112852
 O        -0.1419467186       -3.2599872261       -5.0556829878
 C         0.3945785556       -0.9195884771       -4.9422450083
 C        -1.0034126565       -0.5928305847       -5.6004988077
 O        -1.3789510824       -1.1282201905       -6.6076554120
 C        -1.7428690005        0.5284419697       -4.8826562427
 C        -3.0619386267        0.8131454771       -5.6754421287
 C        -4.2491138836        0.1298838177       -5.0159740369
 O        -4.1412150740       -0.6763756126       -4.0680097690
 C        -5.7803309637        0.2466187367       -5.7213505660
 C        -5.7056762838       -1.0565664410       -6.6491517347
 O        -5.3119057948       -1.0102716441       -7.7591955742
 C        -6.2316511793       -2.3881142036       -5.9494656455
 C        -5.8990968544       -3.7654390774       -6.6478658560
 C        -4.4712240605       -4.2642314373       -6.3727632541
 O        -3.5079737884       -3.6874772801       -6.7830464721
 C        -4.2692946777       -5.5520698284       -5.4385431797
 C        -5.2776041649       -5.6640663337       -4.2505611450
 O        -6.1096411215       -4.7738904962       -4.0913760093
 C        -5.1636492777       -6.9193316728       -3.3512384294
 C        -5.0810307636       -6.2696747435       -1.8825514800
 C        -3.6493160998       -5.7540824530       -1.5291787150
 O        -2.7863725845       -5.6012878949       -2.3462094515
 C        -3.3282744185       -5.1672144544       -0.1233839579
 C        -3.2216765700       -3.6436892123       -0.3141219739
 O        -2.1830380003       -2.9890626217       -0.2305191149
 C        -4.4412378104       -2.8857068873       -0.8976393990
 C        -4.4043826795       -1.3764219614       -0.5791850201
 C        -5.1259511645       -0.9938310186        0.7141278440
 O        -5.7250094859       -1.8495458514        1.3036802736
 C        -4.9165411818        0.3866496346        1.4304827147
 C        -6.3889190107        1.1801307409        1.4801540902
 O        -6.3775986614        2.3397029968        1.7449739029
 C        -7.6360711859        0.3881724126        1.0531573483
 C        -4.4803421440        0.0427359412        2.9027657495
 C        -3.9749633003        1.3121380272        0.7721094808
 C        -4.4978738080       -5.4046577188        0.9374595569
 C        -1.9851534087       -5.7980097036        0.3586090423
 C        -4.6378045127       -6.8116703856       -6.5105698746
 C        -2.7469550735       -5.7052417542       -5.1404435039
 C        -6.8494875926        0.3189225425       -4.5929696730
 C        -6.0483476418        1.4486130828       -6.7466421118
 C         0.9062023887        0.0915361729       -3.9899987822
 C         1.3661898153       -1.1310709440       -6.0747307523
 C         1.2372884982       -6.6390761804       -1.8639987681
 C         3.4707145340       -5.5814602317       -1.8915253554
 C         1.2028981670       -7.8653175625       -8.2847526976
 C         2.7996837102       -6.3616282579       -9.5586070157
 C        -4.4593638809       -3.1297786940      -10.1474524913
 C        -3.9466322579       -5.4437830338      -11.1755558428
 C        -1.8388829489       -0.1238961947      -16.4257237434
 C        -3.7536347804        1.5043589618      -15.8519813023
 C        -5.9247882013       -2.0847557128      -22.2606368651
 C        -4.5453625067       -0.1748129005      -23.0879662470
 C        -9.7768621866        4.4482329115      -22.6961261115
 C        -8.5871764524        4.3790179608      -24.8774750321
 C        -4.9928413937        4.4012040684      -19.3025331845
 C        -4.1325946209        6.6200303179      -20.1439930695
 H        -1.2725795284        6.4265049131      -19.3457320332
 H        -1.2474264563        5.9220243607      -21.0631463485
 H        -0.5045957271        4.9250714901      -19.8018664592
 H        -4.2963459740        5.7440364919      -23.6160674535
 H        -5.0782962868        6.6317650680      -22.3606567968
 H        -5.9660749089        4.0630292928      -23.9679916858
 H        -6.5017044778        5.9053652140      -24.1725786960
 H        -9.7638781930        1.3669320871      -22.0811321160
 H        -8.6002827098        2.0402474218      -21.1041874408
 H        -7.6934921764       -0.2567721006      -22.9631901284
 H        -8.3172117203       -0.4886819341      -21.3551203937
 H        -4.7508247073       -2.9161709616      -19.7548883454
 H        -5.9688059487       -1.6935081753      -19.0725070461
 H        -2.8872078938       -1.8298801346      -18.5090827522
 H        -4.2331834220       -2.4324696361      -17.4358572665
 H        -2.6021779434       -0.3097151094      -13.6608686401
 H        -2.3518108946       -1.8756582067      -14.3751165601
 H        -4.8457045581       -1.7461459962      -12.8212692795
 H        -3.4592847183       -1.5613890494      -11.8313247241
 H        -1.1964493677       -5.3779866299      -11.9783076296
 H        -1.6682138726       -6.2054484090      -10.3711488539
 H         0.4274933875       -4.0213912961      -10.3729551703
 H         0.9640856483       -5.5072584298      -11.0928310470
 H         4.3182353388       -6.0786231540       -7.0246342768
 H         3.0676424137       -7.1489992396       -6.3801793212
 H         3.6080170080       -4.5359400327       -4.9326215081
 H         4.4115012167       -6.1120587896       -4.5262562842
 H         0.0669366655       -3.7840662109       -1.1550079334
 H        -0.5485717739       -4.5191280402       -2.6747507571
 H         0.4461113876       -1.5845213840       -2.2900083818
 H        -1.2982913851       -2.2310216191       -2.5804432378
 H        -1.0950203666        1.4254274783       -4.7268519829
 H        -1.9495678705        0.2726235101       -3.8787221745
 H        -2.8307192924        0.3634057922       -6.6334747334
 H        -3.2091159449        1.9182191345       -6.0322371621
 H        -7.2854180211       -2.2572718339       -5.7879662705
 H        -5.7182817054       -2.3703862241       -5.0411497377
 H        -6.0237441293       -3.8470357178       -7.6989001444
 H        -6.6007340853       -4.4755335614       -6.1833228394
 H        -4.3069475963       -7.6049482021       -3.5179545951
 H        -6.0718956144       -7.5079291769       -3.3318227341
 H        -5.4563325086       -6.9306160380       -1.0359390962
 H        -5.7796736564       -5.3536817874       -1.8807018039
 H        -5.3310956989       -3.2531912366       -0.4604709166
 H        -4.4495176627       -3.0897962611       -2.0229309722
 H        -4.7518346576       -0.9034163539       -1.4855933813
 H        -3.3208340357       -1.0417274125       -0.4635023624
 H        -7.7974924733       -0.6184679828        1.3542155359
 H        -7.7640703628        0.3938474846       -0.0105034420
 H        -8.4844296890        0.9156678913        1.3869786295
 H        -3.9460909231        0.7817991148        3.4166744844
 H        -3.7550760082       -0.7041085116        2.7682623557
 H        -5.3798912022       -0.1325272734        3.5304066315
 H        -2.9241540313        1.0730976722        0.9421408930
 H        -4.0434282813        2.3620751750        1.0696993756
 H        -4.1585529017        1.4738511072       -0.3108446944
 H        -4.6736652119       -6.4938873318        1.1399333119
 H        -5.3914279206       -4.9071105680        0.5954501649
 H        -4.1722500221       -4.9235589616        1.9635697406
 H        -1.9789097859       -6.8390383535        0.7095600270
 H        -1.6033166280       -5.1700109976        1.2395772122
 H        -1.2150692027       -5.5533657207       -0.4145085955
 H        -3.7300447036       -7.2681711962       -6.8001333751
 H        -5.2473235635       -6.4730216947       -7.3162928384
 H        -5.2254220912       -7.6685283221       -6.0141176988
 H        -2.1562028987       -5.8113058571       -6.0442172179
 H        -2.5387079168       -6.6110924700       -4.5327893287
 H        -2.2710023026       -4.9312062853       -4.6074017528
 H        -6.3956708283       -0.1598317197       -3.7004301038
 H        -7.8672748352       -0.1529893868       -4.8278878230
 H        -7.0175442994        1.3686799415       -4.4269137835
 H        -5.2504965012        1.6365553929       -7.3593171716
 H        -6.4441947354        2.2738965072       -6.1684914105
 H        -6.7889493549        1.1218296804       -7.4619885447
 H         1.2113765448        0.9814091157       -4.5070429504
 H         1.8010227477       -0.3135053894       -3.6062033975
 H         0.2983890595        0.2427821272       -3.0850371961
 H         2.3471970365       -1.4180954748       -5.7332932869
 H         1.3973133239       -0.2184357650       -6.5639563601
 H         0.8579383446       -1.7923549186       -6.8361683138
 H         1.9526683793       -7.3570350875       -1.4036201050
 H         0.5842365578       -7.1400025979       -2.5715817546
 H         0.7310641398       -6.1210933457       -0.9707205567
 H         4.1301223804       -5.3073624099       -2.6361629744
 H         3.7555618729       -6.6031984690       -1.4858820768
 H         3.4360733490       -4.8417265293       -1.0987193669
 H         0.6670863328       -8.0613768998       -7.4032909440
 H         1.9899249563       -8.5524453406       -8.3492823430
 H         0.5157580294       -8.1001128158       -9.1224013745
 H         3.6058632402       -6.8565311126       -9.1018247940
 H         2.8431032061       -5.3737789338       -9.8328563855
 H         2.4820935010       -7.1160047005      -10.3403218749
 H        -5.1686572449       -3.8099377898       -9.6179022304
 H        -5.0499183048       -2.4601419350      -10.8125552375
 H        -3.9381483344       -2.4513331703       -9.5302371847
 H        -4.1666046519       -5.9802651633      -10.2526709527
 H        -3.4343881584       -6.0351212651      -11.9376161639
 H        -4.9371363030       -5.3854289876      -11.6023612050
 H        -1.4748557145        0.7004720724      -17.0321605810
 H        -1.6414140714       -1.1036832849      -16.8262646732
 H        -1.3069978640        0.1407645311      -15.5001351146
 H        -3.8170037545        1.6291488584      -14.7552391469
 H        -4.6697369884        1.8404714471      -16.4531138086
 H        -3.0648403472        2.3092101163      -16.0980190663
 H        -5.1404259026       -2.8455707170      -22.3010763626
 H        -6.5228016200       -2.2316990867      -23.1856096509
 H        -6.5891399858       -2.5044866909      -21.4920014895
 H        -3.9746063687       -1.0076928837      -23.4620049227
 H        -3.8429381982        0.5437749833      -22.5340948430
 H        -5.0671757033        0.2383347527      -23.9723063702
 H        -9.8704517736        4.3471803883      -21.5883254967
 H       -10.6287657299        4.0683683886      -23.2866033335
 H        -9.7827758265        5.5871073195      -22.7444312295
 H        -8.9053201915        5.4113399040      -25.0890940207
 H        -9.1819925151        3.5628499736      -25.3402575237
 H        -7.6638502154        4.3589650159      -25.5192387729
 H        -5.7585811662        3.7843859650      -19.6682380435
 H        -5.4045420346        5.2069141362      -18.6611191381
 H        -4.4117484891        3.9637805683      -18.5730252136
 H        -3.1885324382        7.1036927151      -20.4898125523
 H        -4.3465900991        6.6588668304      -19.0824034812
 H        -4.9843361815        7.1907664087      -20.6243087537
 Na       -4.1084543525        1.9442010425      -20.1082075565
 Na       -1.1865651152       -3.2886298247       -7.2039545504
