232

 C       -13.5390200115      -14.5641487488       -1.6452203003
 C       -14.6296466908      -14.4994806983       -2.6629440441
 O       -15.0826599182      -13.4711055306       -3.0970311262
 C       -15.3989822844      -15.9140235174       -3.1346852061
 C       -15.4746754859      -16.0652681617       -4.6970018884
 O       -16.3980663661      -15.4811100851       -5.2413718970
 C       -14.5069072502      -16.8555967803       -5.6106604209
 C       -14.4738917219      -16.2212437841       -7.0327981145
 C       -14.5178924141      -14.6933040035       -6.9438863602
 O       -14.1216481468      -14.0660853855       -5.9072595014
 C       -14.9315075070      -13.7520922982       -8.2279911427
 C       -15.5037097676      -12.3974769986       -7.7147567775
 O       -16.6875142841      -12.4441654815       -7.3064968399
 C       -14.7126050243      -11.1085787583       -7.8721336034
 C       -15.4618553660       -9.9077286744       -7.3358208658
 C       -15.1581423999       -9.5494968522       -5.8286754607
 O       -15.2449614835      -10.4136133822       -4.9899835199
 C       -14.6260297352       -8.2002802137       -5.3747755896
 C       -13.3605134962       -7.6957386858       -6.2415979980
 O       -12.9183434294       -8.4174055050       -7.1313612990
 C       -12.5361469282       -6.4766684747       -5.7496372396
 C       -12.3565410523       -5.3319964813       -6.8067088535
 C       -13.0296866221       -4.0508993704       -6.1645770562
 O       -13.7156485754       -4.1085802837       -5.1542188296
 C       -12.7174303153       -2.7173392150       -6.8516771852
 C       -11.0857192980       -2.5207365006       -6.6646153043
 O       -10.5187688986       -2.7156067648       -5.6147386985
 C       -10.4186358880       -1.7097137395       -7.7465768440
 C        -9.3094420584       -0.7555324735       -7.2323472373
 C        -9.9901929107        0.5402238230       -6.6216233095
 O       -11.0127660476        1.1010450753       -7.1092859060
 C        -9.4470210414        1.0758488758       -5.3017558447
 C        -7.8883405344        1.0463560385       -5.4338347949
 O        -7.1676325307        0.1934306222       -4.8705497748
 C        -7.2031966201        2.2336513061       -5.9149492348
 C        -7.4095445673        2.6901790296       -7.4294499559
 C        -6.2490493167        3.7300624976       -7.7256755592
 O        -5.8506376644        4.2705140842       -6.7590167442
 C        -5.6879833249        4.1507784668       -9.2596317726
 C        -4.8738058804        2.8658045095       -9.6883079265
 O        -5.2979490292        1.7636028283       -9.4978610362
 C        -3.4180564802        3.0831728666      -10.1834776434
 C        -2.5154556328        1.8008178931       -9.9274667378
 C        -1.0232278629        2.0467502330      -10.0727822114
 O        -0.7327751093        2.5933912477      -11.1792102585
 C         0.1290427949        1.5211207767       -9.1565573947
 C         1.5830791916        2.2638139575       -9.6191516008
 O         2.4616466806        1.6090876101      -10.0997375163
 C         1.6395377686        3.8289705151       -9.6419006989
 C         2.4870723771        4.1728444637      -10.7927786189
 C         2.4849265640        5.6986781004      -11.2100549236
 O         1.7348340892        6.5870434733      -10.7286833885
 C         3.4490579616        6.0241719038      -12.3909757484
 C         3.5192755035        4.9566280681      -13.6311794046
 O         4.6284780609        4.6961886892      -14.0681413991
 C         2.1717968763        4.4187193035      -14.2998018411
 C         2.0950917616        4.8943339794      -15.7137597669
 C         3.1812717944        4.2557654709      -16.7178387025
 O         3.4466921526        3.0887842903      -16.5357016323
 C         3.6365583845        5.0695670399      -17.9576287333
 C         5.3218283159        5.0586887557      -17.9533428827
 O         5.7637268356        4.6833745115      -19.0871745518
 C         6.1921632913        5.5737841763      -16.7503027840
 C         7.6948552259        5.4390024812      -17.0383398976
 C         8.0850660440        4.0141979963      -17.2496083251
 O         7.3688019016        3.0758807233      -16.8510223639
 C         9.4861886987        3.7360308622      -17.8798303283
 C        10.4223166622        3.8369446156      -16.6480458570
 O        10.3454199811        4.7473614714      -15.8100743364
 C        11.6033662076        2.9046460740      -16.5339544705
 C        12.3334074345        2.9945918309      -15.1573195858
 C        11.6825618712        1.8796690328      -14.2015023417
 O        11.0408477335        0.9551527590      -14.6396933278
 C        11.8856813968        1.9849923445      -12.6243147466
 C        10.6558357479        1.5232380194      -11.7732109130
 O        10.7613500701        0.7374204413      -10.8380265310
 C         9.3328760183        2.0203224457      -12.1911632167
 C         8.0764271779        1.3485782725      -11.7182445855
 C         6.9413921764        1.3661974768      -12.7172126890
 O         6.7973628643        2.4208811433      -13.3654497800
 C         5.9395388864        0.0817290921      -13.0395184962
 C         6.3989449394       -0.1562815025      -14.6006096741
 O         5.6626506838        0.3182820213      -15.4508083716
 C         7.7792383014       -0.7550313344      -14.8610552629
 C         6.2263746677       -1.2715514822      -12.2185912420
 C         4.4723086606        0.6452314596      -13.1523173160
 C        13.1558991815        1.0604204792      -12.3756609710
 C        12.1689930859        3.4228980949      -12.1682442169
 C         9.6097361305        2.3116329819      -18.5111232387
 C         9.9875496430        4.8064254347      -18.8630443719
 C         3.0732252038        4.4795986550      -19.2766605587
 C         3.2478784368        6.5788826834      -17.9074217896
 C         3.2194668718        7.3988070320      -12.8967636199
 C         4.8366711537        5.9504362733      -11.6706830972
 C        -0.2456637630        1.8639178356       -7.6958258381
 C         0.4209319151        0.0468077801       -9.2568711024
 C        -7.0189511421        4.3623918469      -10.1307430445
 C        -4.9142958555        5.4310951828       -9.3403433499
 C        -9.8716799838        2.5282195457       -4.9987415228
 C       -10.0053612563        0.1959647343       -4.1874825522
 C       -13.0625066761       -2.8696752512       -8.3682237824
 C       -13.3696841078       -1.5460299334       -6.1982942733
 C       -15.6727537939       -7.1331840217       -5.7165599327
 C       -14.2374941316       -8.1192968124       -3.8706412102
 C       -13.6572381783      -13.6540651740       -9.1599824475
 C       -16.0717521826      -14.4417068546       -9.0821695131
 C       -14.7025851635      -17.2454029398       -2.6279531709
 C       -16.8235986772      -15.8312380039       -2.6535591580
 H       -12.5733521523      -14.3595131565       -2.1293556323
 H       -13.4003047039      -15.4798030949       -1.0974750251
 H       -13.6756913274      -13.7401664458       -0.8860425281
 H       -14.7534558015      -17.9275922334       -5.6416715831
 H       -13.5280483684      -16.7876635226       -5.2120698603
 H       -15.3946663902      -16.5671344058       -7.4513304430
 H       -13.6893990870      -16.6257771648       -7.6353725065
 H       -14.2597639022      -10.9227714213       -8.8809802991
 H       -13.7455768965      -11.2323750053       -7.2908936513
 H       -16.5088449956       -9.9895538315       -7.5551849312
 H       -15.2271048000       -9.0213296575       -8.0007825832
 H       -11.5474353061       -6.7193591792       -5.2690223958
 H       -13.0188935051       -5.9871088467       -4.8629558432
 H       -12.8751662373       -5.6260372554       -7.7007120169
 H       -11.3695507949       -4.9650761911       -7.1401405607
 H       -11.1987574428       -1.2562021149       -8.3241536009
 H        -9.9019157033       -2.2423081529       -8.6178430568
 H        -8.7465445399       -0.3831047962       -8.1072430193
 H        -8.6582808319       -1.2507365793       -6.4884833570
 H        -6.0854842222        2.0178807416       -5.7200777213
 H        -7.3413525911        3.0783155761       -5.3139174776
 H        -8.3954240880        3.2268351372       -7.4113934688
 H        -7.3825506911        1.8552192009       -8.1322122316
 H        -2.9673190632        3.9231998413       -9.6818643452
 H        -3.3191039177        3.4091892936      -11.2998109433
 H        -2.7542722452        1.0791642104      -10.7125822966
 H        -2.7446832072        1.2603740063       -8.9358887627
 H         2.0056560041        4.1734535238       -8.6627129458
 H         0.5750771182        4.0737366634       -9.6048817633
 H         2.2981578855        3.5603972098      -11.5940626618
 H         3.5476841625        3.9252317497      -10.5669071426
 H         1.3149909238        4.9183953303      -13.7733559654
 H         2.2146619030        3.3384724538      -14.1764054141
 H         1.9845756826        5.9726584295      -15.6920364695
 H         1.1620799022        4.6613347386      -16.1546887096
 H         5.7299911989        4.9866796236      -15.9570415114
 H         5.8244626180        6.5951790137      -16.5683261764
 H         8.1406430753        5.8306861187      -16.1939216129
 H         8.0708098314        6.2722621122      -17.7348148969
 H        12.4585026269        3.0011236135      -17.2576734772
 H        11.3434605492        1.8189387420      -16.5901471028
 H        12.0890548382        3.9136645522      -14.6275800146
 H        13.3825773776        2.8157119274      -15.2690341134
 H         9.3021148700        2.3533711705      -13.2615111776
 H         9.4172591299        3.0409817116      -11.7355834441
 H         7.7801675715        1.7356983517      -10.7660415031
 H         8.3756523226        0.2796901814      -11.4426992426
 H         8.2496783406       -1.1959887342      -13.9873123157
 H         8.3721936387        0.0678520089      -15.1808204353
 H         7.7979177700       -1.5715892626      -15.6765553555
 H         5.6336012868       -2.0654390806      -12.5518934352
 H         6.0338586926       -1.0193709668      -11.1843208560
 H         7.2704963233       -1.5686715977      -12.3000031206
 H         4.0478901924        0.4039497299      -12.2141048433
 H         3.9787171896        0.3341504761      -13.9615913905
 H         4.5550631279        1.7332665857      -13.2645383524
 H        13.9545581438        1.4599181248      -13.0394295269
 H        12.9698026611        0.0635292236      -12.7456041475
 H        13.3894472502        1.0022138724      -11.2830087879
 H        13.0769232125        3.8277909837      -12.6560975913
 H        12.2458882185        3.5244350022      -11.0757414283
 H        11.2811718853        4.0237594223      -12.4552293579
 H         9.6041041437        1.3790551604      -17.8656517012
 H        10.5628959111        2.3221636822      -19.0083667897
 H         8.6803060084        2.1923926470      -19.1081879941
 H         9.7977059362        5.8211305961      -18.6049549237
 H         9.5664441893        4.7390051769      -19.8640615116
 H        11.0823760965        4.7560133701      -18.9434465029
 H         2.1493393720        5.0626579748      -19.4398265787
 H         3.0480657675        3.4638621390      -19.3025736475
 H         3.7190190948        4.7510979936      -20.1039733983
 H         4.0351660613        7.1915130740      -18.4586598375
 H         3.1994758408        7.0058096470      -16.8548277673
 H         2.2414285130        6.7057283248      -18.3231953601
 H         3.5499453772        8.0500702654      -12.0699574846
 H         2.2289680516        7.5795679267      -13.1340006313
 H         3.8322929182        7.6980548005      -13.7460722484
 H         5.6939303247        6.3757818436      -12.2668128968
 H         5.1897954320        5.0064646180      -11.3415684855
 H         4.9552369368        6.3797681503      -10.7292488243
 H        -1.1449906436        2.5003871138       -7.5812184623
 H         0.5615200375        2.5044825945       -7.1767050204
 H        -0.3164434365        0.9990463499       -7.0391068689
 H        -0.4850547731       -0.4795250830       -8.8414778145
 H         1.2190205866       -0.1959514675       -8.6505442947
 H         0.6789690734       -0.4199419020      -10.1863405024
 H        -7.5272443172        3.3767363132      -10.1752397915
 H        -6.7247541567        4.7591790791      -11.1442834984
 H        -7.7010081729        5.0948608201       -9.6331548956
 H        -3.8667897046        5.3296005841       -9.0368521116
 H        -5.3530283949        6.1801853871       -8.6470869523
 H        -4.9913321823        5.8967465058      -10.3017555242
 H       -10.8832555002        2.7106496194       -4.8505002916
 H        -9.5214399795        3.0960840085       -5.8199041576
 H        -9.3789176820        2.8528257601       -4.0520867947
 H        -9.6555905690        0.3046098301       -3.1586670588
 H       -10.0013374543       -0.8191853312       -4.5144672138
 H       -11.0499630202        0.2818596350       -3.9992325834
 H       -13.2343012579       -1.8593746267       -8.8210771810
 H       -14.0068738240       -3.4248307489       -8.6271593713
 H       -12.3202198993       -3.3630491248       -9.0165197385
 H       -14.2735999026       -2.0107656883       -5.7142710612
 H       -13.8275658582       -0.7370153273       -6.8930913993
 H       -12.6855243610       -1.1128161540       -5.4663463603
 H       -15.7501687653       -6.9423914604       -6.8352858436
 H       -15.5847794399       -6.2005771065       -5.1950980479
 H       -16.7044400824       -7.4085412216       -5.3941539403
 H       -13.2450553326       -8.5320464464       -3.7030120742
 H       -14.9641323200       -8.7218881822       -3.2293639514
 H       -14.1963040318       -7.0997364316       -3.6749375192
 H       -12.9494455817      -13.1420264571       -8.5336515939
 H       -14.0378662789      -12.9603327958       -9.8985434361
 H       -13.3664654006      -14.6507669931       -9.4924961262
 H       -16.7199983468      -15.0477873681       -8.5563860443
 H       -15.6159258868      -15.0449564500       -9.7912646064
 H       -16.8116689189      -13.7543885609       -9.5722383462
 H       -13.6542665788      -17.3839910717       -3.0149490582
 H       -15.2492075400      -18.1572594362       -2.9041763101
 H       -14.6858997172      -17.1797805423       -1.5356451092
 H       -17.4032551268      -14.9776339690       -3.0357408404
 H       -16.7666122574      -15.8058336549       -1.5696426351
 H       -17.3150672208      -16.7869566532       -2.9477392196
 Na      -16.0458466674      -12.6699627960       -4.9971566526
 Na        5.6649221421        2.6972134543      -15.3574076765
