232

 C       -19.6542165877       -4.9239714677       -5.4585609273
 C       -19.5735884944       -5.6813672024       -4.0406501427
 O       -18.5417879885       -6.2569163076       -3.7171116212
 C       -20.9006621881       -5.8606466200       -3.1340980922
 C       -20.2509879366       -5.4671424202       -1.7883332710
 O       -19.7110633041       -6.3712284998       -1.1073723888
 C       -20.1252112214       -3.9613448272       -1.3360142949
 C       -18.9290379656       -3.9145797636       -0.3405755903
 C       -17.6349671398       -3.5973417353       -1.1970761467
 O       -17.6785801518       -3.1006059277       -2.3151882895
 C       -16.2799701119       -4.0066853199       -0.4483524785
 C       -16.3527891755       -5.5724429920       -0.7369698568
 O       -17.1878224559       -6.2499920227       -0.0814506385
 C       -15.5098044992       -6.2211109780       -1.8391187638
 C       -14.8315290516       -7.5874480936       -1.5262936047
 C       -15.0855413626       -8.7707311166       -2.4914717818
 O       -16.1516896766       -8.7621375626       -3.1108072890
 C       -13.9873970935       -9.8411029854       -2.7681605821
 C       -12.7965642027       -9.0090814376       -3.6114488490
 O       -13.0035343891       -7.8817313648       -3.9917756999
 C       -11.3209255317       -9.6431457184       -3.4787956169
 C       -10.3861886444       -9.2485507128       -4.6330391107
 C        -8.9514054887       -9.9007287038       -4.3430943101
 O        -8.7402585482      -10.7330372547       -3.4597901510
 C        -7.8692079456       -9.5843491782       -5.4596412003
 C        -7.6915873250       -8.0855722468       -5.5972867352
 O        -8.3375901768       -7.3374158428       -4.8678094948
 C        -6.6136323957       -7.4381878993       -6.5325355077
 C        -6.9850504965       -5.9363742688       -6.7466276420
 C        -8.1299269540       -5.6940026979       -7.7335102266
 O        -8.7499784184       -6.6556979011       -8.1719992041
 C        -8.2493666334       -4.2721717317       -8.3008596115
 C        -7.0209582546       -4.1175744734       -9.3548024074
 O        -5.9340488805       -4.1698465339       -8.8723053948
 C        -7.2439987582       -3.8149097370      -10.8560401350
 C        -5.7912687216       -3.5405123027      -11.3718388536
 C        -5.8039968447       -2.9968874339      -12.7937371402
 O        -6.8614235135       -2.5332300373      -13.1900609419
 C        -4.5439764617       -3.1570755036      -13.6701683747
 C        -3.4125033518       -2.2173770248      -13.0331776494
 O        -3.6623513733       -1.6635254938      -11.9723298849
 C        -2.0427334671       -2.3808768688      -13.6938995099
 C        -0.8146853704       -2.4437499774      -12.7083941028
 C         0.4981083859       -1.8976200090      -13.2715727380
 O         0.6336655052       -1.0365063615      -14.1277550309
 C         1.8701757236       -2.5301610310      -12.5797477377
 C         2.8016036392       -1.3490204964      -12.0742187571
 O         4.0056890015       -1.5104159029      -12.0655078874
 C         2.1582381690       -0.1458745831      -11.4291491670
 C         3.1426659852        0.9361813891      -10.7990525034
 C         2.9027162010        2.3419664980      -11.1393249728
 O         2.0541882366        2.7244670311      -11.8379854029
 C         3.8515361439        3.4670588658      -10.5833193129
 C         4.4380354633        4.1488717145      -11.7250855326
 O         5.5660927650        3.8770280348      -12.2269316913
 C         3.6900867967        5.2882149300      -12.5678411235
 C         4.0936962197        6.7465497954      -12.3639687389
 C         5.4460940281        7.0028507709      -13.1000577371
 O         5.6097975098        6.5648270519      -14.2056334076
 C         6.6583151213        7.7077875700      -12.3172390890
 C         7.9446333862        7.7157116374      -13.4381971769
 O         8.1670112574        8.6676838194      -14.0584819252
 C         8.7396680417        6.3515957573      -13.7010791216
 C         9.2848555225        6.2366237474      -15.1701958538
 C         8.2102212595        5.8625837505      -16.2337398169
 O         7.2783926588        5.0891307962      -16.2305203200
 C         8.6701055985        6.2987569668      -17.6891184665
 C         9.5961627748        5.0718561883      -18.1153222824
 O         9.8649112364        4.3539018768      -17.2037504517
 C         9.9251929687        4.8085076608      -19.6390305755
 C         9.6176683260        3.3455956091      -20.1579757108
 C         8.2384955940        2.8533859003      -19.7467273288
 O         7.4952375740        3.4523513986      -19.0827804279
 C         7.8031867647        1.3930672045      -20.2643472369
 C         7.9178724588        0.2371260525      -19.0328787803
 O         8.7400550861       -0.6236627209      -19.0019344430
 C         7.0569811101        0.6290872171      -17.8195249494
 C         7.8929279678        0.6627845920      -16.5221389712
 C         7.1511115195        1.3198485451      -15.3180943928
 O         7.5817655767        2.4322414820      -15.0774300918
 C         6.1348850244        0.6067668270      -14.4396710858
 C         4.7351745839        1.1659946197      -14.8097736545
 O         4.4648458219        2.3366908245      -14.6030331803
 C         3.7624525929        0.2487920108      -15.3549867277
 C         6.1881961908       -0.9984916093      -14.6990235461
 C         6.4497022153        0.8298589829      -12.9499101282
 C         6.2392421862        1.3682283207      -20.6885722141
 C         8.7906533957        0.9136765244      -21.4142064301
 C         7.4553556823        6.3409114268      -18.6565350279
 C         9.3918062395        7.7292351064      -17.8164072214
 C         6.4123449231        9.1295669753      -11.9740005634
 C         6.8481550668        6.7787478237      -10.9987073407
 C         2.8630844865        4.2936416150       -9.7204247195
 C         4.9772316861        3.0483343347       -9.5839283671
 C         1.6194795392       -3.3949507200      -11.3723012764
 C         2.6544130509       -3.4728131021      -13.5411839041
 C        -4.0596489737       -4.6163714389      -13.5609133089
 C        -4.9563712517       -2.6550668433      -15.0325290077
 C        -9.6488764335       -4.0426092938       -9.0771077021
 C        -8.2264850532       -3.0620840688       -7.2393587509
 C        -6.4315042852      -10.1539996197       -5.0882919964
 C        -8.3246530448      -10.1550574171       -6.8431494004
 C       -13.3930599079      -10.3877026537       -1.3573749435
 C       -14.4189009864      -10.8765825254       -3.7793657899
 C       -15.0363751316       -3.3131427084       -1.0601477859
 C       -16.4756129140       -3.8343245921        1.0943326458
 C       -22.0150306171       -4.9003077390       -3.4793728713
 C       -21.2646618640       -7.3231676580       -3.1354798712
 H       -19.5689839851       -3.8600896824       -5.1178603848
 H       -20.5638256837       -5.1045492280       -5.9095700825
 H       -18.7057490883       -5.1911380632       -5.9236964520
 H       -21.0499564788       -3.6604651103       -0.8474203239
 H       -19.9121776825       -3.3686097792       -2.2321408372
 H       -18.7437303233       -4.9346568041        0.0396521760
 H       -19.0150853824       -3.1363439227        0.4733634979
 H       -14.8440325933       -5.4324558627       -2.2208589567
 H       -16.1784341731       -6.3632366240       -2.6466099740
 H       -15.0628061468       -7.8337314139       -0.4726683734
 H       -13.6782497377       -7.4241333444       -1.3576772700
 H       -11.4728508837      -10.7341306251       -3.4078938488
 H       -11.0841207033       -9.1783458678       -2.5128022342
 H       -10.3371032223       -8.1084681552       -4.7034819837
 H       -10.7082308978       -9.6192922836       -5.6248614629
 H        -6.8393923508       -7.8444973247       -7.5488477439
 H        -5.5865817969       -7.6208665229       -6.1254699543
 H        -6.1877286230       -5.3096489332       -6.9824016834
 H        -7.4532575398       -5.6220094763       -5.8476159885
 H        -7.7974264041       -2.8500047268      -11.0384302604
 H        -7.7243976895       -4.5692224716      -11.3763628559
 H        -5.1444260874       -4.4741609908      -11.4457042257
 H        -5.3228858141       -2.7987265337      -10.7829193220
 H        -1.9427553242       -1.6294789215      -14.4619125011
 H        -2.2584948515       -3.1983481063      -14.4002176797
 H        -0.6786616359       -3.4948395581      -12.4792794269
 H        -1.2475259185       -1.9588642134      -11.7907718084
 H         1.3633502354       -0.4652779334      -10.7615860709
 H         1.7730920820        0.4677623886      -12.2767505220
 H         4.2627557535        0.8279522351      -10.9605811713
 H         3.0535351749        0.9216234316       -9.7328583316
 H         2.6553540030        5.1100028638      -12.3052816750
 H         3.6708877913        5.0922750423      -13.6005136907
 H         4.2680464144        7.0789904239      -11.3124615431
 H         3.4109986049        7.3146267560      -13.0287454951
 H         7.9280153808        5.5483362845      -13.6601163551
 H         9.5127003310        6.1573146428      -12.9215767326
 H        10.1639546599        5.4376853362      -15.4328310472
 H         9.5248223550        7.2106894966      -15.4751004184
 H        10.9701138113        4.9709462675      -19.7875517833
 H         9.3824821741        5.4792837293      -20.2921394732
 H        10.3066144365        2.7128863875      -19.7602751337
 H         9.8352615303        3.3568039091      -21.2413787510
 H         6.1759079119        0.0103882056      -17.4494750772
 H         6.5125731379        1.5968910966      -17.7381013954
 H         8.7888706883        1.2899810898      -16.7034853758
 H         8.0781425833       -0.3280674267      -16.1733277110
 H         4.0876316771       -0.4225257119      -16.1012816599
 H         2.8997363382        0.9244382701      -15.6512605401
 H         3.4139045790       -0.3135356803      -14.5213253650
 H         5.2500856291       -1.3284587887      -14.2365636413
 H         7.0036699816       -1.3679200700      -14.1770565317
 H         6.2223912584       -1.2620322326      -15.7486295678
 H         5.6040054676        0.3182611970      -12.3174504636
 H         6.3092253419        1.8742155312      -12.6409534117
 H         7.4698483984        0.7366185841      -12.6248701467
 H         5.9643925563        0.3615761470      -21.0883207948
 H         5.8988813011        2.2098684282      -21.3345572310
 H         5.6743313595        1.6546545726      -19.7546347715
 H         8.3024085532        0.1181641072      -21.9778781176
 H         9.7815198050        0.6908946833      -21.0499430669
 H         8.7853167527        1.6318206941      -22.2606767917
 H         6.8896865608        7.1918506187      -18.3606369487
 H         6.7979747645        5.4662210227      -18.5189005339
 H         7.7547842657        6.2423241465      -19.7492818881
 H        10.3580096579        7.8348611419      -17.4537396054
 H         8.6919587485        8.5140884807      -17.3787451102
 H         9.5065151844        8.1693037992      -18.8352639239
 H         7.1668429597        9.5184931509      -11.3418841109
 H         5.5195115230        9.3764705720      -11.3532847025
 H         6.1829685979        9.7051309111      -12.8702222400
 H         6.8956077734        7.3448218534      -10.0567340812
 H         7.7749910645        6.2870447686      -11.1545362412
 H         6.0730637566        6.0114280874      -10.8494073704
 H         2.8163565431        3.9726263357       -8.6997670127
 H         1.7966704411        4.3396524467       -9.9267058971
 H         3.1402402921        5.3431505416       -9.6939161513
 H         5.3524935333        3.9950181485       -9.0581255521
 H         5.8414157825        2.7300082856      -10.2195087318
 H         4.6028655340        2.3081551359       -8.8995184459
 H         0.8308334459       -2.9613959046      -10.6138795258
 H         2.5934210892       -3.4507953401      -10.8756399987
 H         1.2356744178       -4.4235270307      -11.4269284124
 H         1.9401605877       -4.2221964679      -13.9853660261
 H         3.5917135937       -3.9467193391      -13.0920058890
 H         3.0458340410       -2.7936037491      -14.3606918648
 H        -3.5954135425       -5.0071907761      -14.4624360906
 H        -4.8414077145       -5.3679341193      -13.3278592797
 H        -3.3440817174       -4.6645166026      -12.7706433613
 H        -4.2324168980       -2.5235353642      -15.7833428002
 H        -5.5527968713       -1.7430567957      -15.0323803974
 H        -5.6847145776       -3.4226200254      -15.3928421848
 H        -9.6981381209       -2.9568355671       -9.0952923831
 H       -10.4974474600       -4.3722637883       -8.4746164103
 H        -9.6163564422       -4.4171301830      -10.1402978732
 H        -9.2298923295       -2.7783706852       -6.8235796603
 H        -7.7223715013       -2.3108606563       -7.8219358528
 H        -7.5901997084       -3.3392473931       -6.4025015410
 H        -6.4251561084      -11.2808396346       -5.0235816914
 H        -6.1232356414       -9.7021028469       -4.1267343076
 H        -5.6619996301       -9.9813688506       -5.8268717073
 H        -8.6382476215      -11.2553841821       -6.7454399283
 H        -7.5274099603      -10.0342678109       -7.5318460350
 H        -9.3175601072       -9.7668446687       -7.1577814639
 H       -12.5845093138       -9.7690539402       -1.0127124561
 H       -13.1289939774      -11.4346067838       -1.4621101228
 H       -14.1236943781      -10.2830148108       -0.5171813213
 H       -14.6371429092      -10.2145550960       -4.6688234342
 H       -15.1854401135      -11.4653110210       -3.3648881561
 H       -13.5518794093      -11.4154925624       -4.0492014738
 H       -14.9967589081       -2.9184212076       -2.1177873116
 H       -14.2505997578       -4.0212889997       -1.0996104578
 H       -14.7025779215       -2.5630917522       -0.3735854504
 H       -17.3736077043       -4.3636416000        1.4226037534
 H       -16.5764876948       -2.7319811435        1.4746735765
 H       -15.6037372537       -4.3361181120        1.5337030382
 H       -21.6333771555       -3.8178901426       -3.6005617711
 H       -22.7704486602       -4.7818714284       -2.6214648710
 H       -22.6784107241       -5.1525313690       -4.2167618490
 H       -22.0002167325       -7.6692493138       -2.4772154028
 H       -20.3374556317       -7.8597738970       -2.8916249823
 H       -21.5535247879       -7.6326514318       -4.1965481693
 Na      -17.9584489681       -7.5470531729       -1.8849381224
 Na        5.9599316797        4.2580403362      -14.5280144839
