232

 C        -2.1051803458        5.7760011173      -19.9329168270
 C        -3.2307881088        4.8194976598      -19.8014035439
 O        -3.0908723670        3.7509321772      -19.3110723022
 C        -4.5768228216        5.3528880442      -20.5186240932
 C        -4.6907300590        4.4650805800      -21.9557081126
 O        -4.5851314394        3.2837743154      -21.8506488848
 C        -4.9066142570        5.2370545670      -23.3184941675
 C        -6.0989492330        4.7690395695      -24.0973857512
 C        -7.4681806972        4.9787740891      -23.3638704845
 O        -7.6425599458        5.8207668676      -22.4898261868
 C        -8.5755943803        4.0393797825      -23.9488949998
 C        -8.1309184162        2.5185153372      -23.6240178445
 O        -7.2958032219        2.0665440038      -24.3757752966
 C        -8.6384330792        1.6593877215      -22.4515965409
 C        -8.0341433209        0.2297179865      -22.4370061583
 C        -6.7156853227        0.2308778925      -21.6648307090
 O        -6.3982308651        1.1635841696      -20.9376972118
 C        -5.7255646857       -0.9880652435      -21.6714572812
 C        -4.8673428155       -0.9403735628      -20.3748277150
 O        -3.8231848322       -0.3842525004      -20.3574292564
 C        -5.5010927395       -1.6268387756      -19.1564723426
 C        -4.3995103273       -1.6818506119      -18.0006596132
 C        -4.1152401362       -0.3022095014      -17.4534531425
 O        -4.5953392083        0.6330619014      -18.0730554179
 C        -3.2710670619        0.0610188360      -16.1105663565
 C        -3.7702081446       -0.8235032668      -14.8911861603
 O        -4.5296451711       -1.7238635587      -15.0765417924
 C        -3.0244165500       -0.5064902785      -13.5676070110
 C        -3.5426592198       -1.3423809280      -12.3657461619
 C        -3.2459623982       -2.8802664001      -12.5333674837
 O        -3.0594402850       -3.4595518890      -13.6108696311
 C        -3.1071237017       -3.7199139906      -11.1379424892
 C        -1.5648839663       -3.5702689253      -10.9821342980
 O        -1.1015289851       -2.6520222558      -10.3385558404
 C        -0.6305753857       -4.5302884314      -11.7509072019
 C         0.5958787080       -4.7588575321      -10.7960217138
 C         0.2301882082       -5.5511923780       -9.5408650886
 O        -0.8502687750       -5.4044106029       -9.0399674175
 C         1.4164943767       -6.3633329683       -8.8196864584
 C         1.6507064021       -5.7248625796       -7.4118042424
 O         0.9275874168       -4.9219979392       -6.8715685716
 C         2.9275746275       -6.2225580845       -6.7012199582
 C         3.0253720462       -5.5535470470       -5.3261917443
 C         2.1359358953       -6.2871340623       -4.3111724903
 O         1.3585995749       -7.0856636599       -4.7365178131
 C         2.3232175360       -6.0232655011       -2.8012228027
 C         1.9793341391       -4.4204857126       -2.7417192290
 O         2.8374700513       -3.6489136902       -2.9974312791
 C         0.5711545333       -4.0180749722       -2.2530556113
 C         0.0081883810       -2.5670708095       -2.4319085284
 C        -0.2410119050       -2.4387721512       -3.9703315588
 O        -0.7001096722       -3.3893771049       -4.6313963084
 C         0.3117056681       -1.1032063230       -4.6475433964
 C        -0.7758536947       -0.5540537645       -5.6075541715
 O        -1.2066872082       -1.2830977895       -6.5398988399
 C        -1.5078676969        0.8615557423       -5.4753651840
 C        -2.9672570037        0.9871558111       -6.0468948812
 C        -3.9834503421        0.6814458892       -4.9997710323
 O        -3.5808655073        0.4664121827       -3.9130845805
 C        -5.5830954025        0.4423066010       -5.4047360761
 C        -5.4769756906       -0.9806295078       -6.1218963464
 O        -4.9538798778       -0.9436261602       -7.2607810671
 C        -5.7087494396       -2.3518803594       -5.4716376352
 C        -5.5764473849       -3.6118489323       -6.3499719110
 C        -4.1849436205       -4.1963501884       -6.3148599657
 O        -3.2237500556       -3.5513188047       -6.7077404176
 C        -3.9369141709       -5.6437887450       -5.6804434085
 C        -4.2069741425       -5.5497642462       -4.1338478562
 O        -4.4668429899       -4.4235176872       -3.7657478261
 C        -4.1744376638       -6.6720985240       -3.2260373736
 C        -4.5628506876       -6.3569035818       -1.7940708792
 C        -3.2582450381       -5.8577272102       -1.0353877109
 O        -2.2413037883       -6.3019054789       -1.4581296897
 C        -3.4374767325       -4.8958385753        0.1817769474
 C        -3.5985360504       -3.4855326986       -0.3751850232
 O        -2.6086211871       -2.7432019150       -0.4328789490
 C        -4.9837868119       -2.9840386886       -0.9558377845
 C        -5.2292415281       -1.5822379569       -0.5850148488
 C        -5.1357830741       -1.3605744370        0.9602877323
 O        -5.0168256588       -2.3138697517        1.7415683599
 C        -5.1406770953        0.0998725741        1.5522820572
 C        -6.6069822398        0.3997972275        1.9894162330
 O        -6.9721039816        1.5607462386        2.1868338001
 C        -7.5458023817       -0.6545948953        2.3417248569
 C        -4.3946601723        0.0386244773        2.8498302538
 C        -4.5440817932        1.1582020810        0.5886389789
 C        -4.7315805664       -5.3129717233        1.0910719180
 C        -2.2013910598       -4.9006541051        1.1329476990
 C        -4.8205152194       -6.6960943303       -6.3379940435
 C        -2.4545581941       -6.0647695440       -5.8306398005
 C        -6.4261446722        0.4359500206       -4.1047682676
 C        -6.0065729107        1.4822368848       -6.4281597331
 C         0.6296445281       -0.0477157694       -3.5836287654
 C         1.5120270819       -1.5909337834       -5.6098994003
 C         1.2843580667       -6.9468162809       -2.0032936534
 C         3.7835826284       -6.1301189574       -2.2392559393
 C         0.9585709321       -7.8765682187       -8.5884143875
 C         2.7937759025       -6.4159991529       -9.6786139705
 C        -3.8272318934       -3.1106100574       -9.9615216139
 C        -3.4521939401       -5.1702358399      -11.4323298886
 C        -1.7712473124       -0.1881836691      -16.4691237262
 C        -3.5156803908        1.6062046799      -15.9601000879
 C        -6.3025774524       -2.3773330179      -21.8863374146
 C        -4.7968276772       -0.6889302899      -22.8924059155
 C        -9.8191836142        4.3853789634      -23.1502488654
 C        -8.6521884904        4.1998865793      -25.5685023349
 C        -5.8259925711        4.8804082979      -19.8100390554
 C        -4.5966857877        6.9262240379      -20.6777316715
 H        -2.0706836115        6.4365345449      -19.1171504673
 H        -2.2210346912        6.4140144579      -20.8136015164
 H        -1.1533616366        5.2633548611      -20.1836418762
 H        -4.0304550868        4.9904418442      -23.9737866711
 H        -4.9708949385        6.3807634761      -23.1695856325
 H        -6.0895612213        3.6521400728      -24.4559485860
 H        -6.1742747912        5.3176440315      -25.0851698149
 H        -9.7449972100        1.6094913811      -22.4435424368
 H        -8.4959043043        2.0435627443      -21.4354235697
 H        -7.8502374108       -0.1577808719      -23.4241929093
 H        -8.7931963795       -0.4135300217      -21.9927742173
 H        -6.0199423644       -2.5470501271      -19.4285288433
 H        -6.3076149932       -1.0592663018      -18.8628364442
 H        -3.3604333369       -1.9016908626      -18.3866294446
 H        -4.6661192448       -2.3217759526      -17.2309396630
 H        -3.1427427492        0.5257612243      -13.3116243270
 H        -1.9355327669       -0.7626754368      -13.5847414081
 H        -4.6314693062       -1.1027366195      -12.3651573295
 H        -3.0483985415       -1.0757877660      -11.4394113660
 H        -0.2835577331       -4.0645254697      -12.6763820822
 H        -1.2196243488       -5.4218744872      -11.9853443848
 H         0.8187460170       -3.7214897320      -10.5247261833
 H         1.3574005956       -5.1476187360      -11.3782248307
 H         3.8772151779       -6.1069705588       -7.1454476628
 H         2.6931360727       -7.3075120958       -6.5835960423
 H         2.7198744824       -4.5507755972       -5.3189683450
 H         4.0588017747       -5.6679843643       -5.0132279530
 H         0.6620574061       -4.3164509393       -1.2441795799
 H        -0.1235999530       -4.6631534840       -2.6796585575
 H         0.7332077485       -1.8418362392       -2.0869990628
 H        -0.9876696927       -2.5635647473       -2.0045634814
 H        -0.8279879984        1.5402684703       -5.9814557344
 H        -1.4593661610        1.2156457314       -4.4668842191
 H        -2.8990992006        0.3421398164       -6.9093577074
 H        -3.0750772907        1.9089417587       -6.5362966737
 H        -6.7434899822       -2.1543387168       -5.1098839475
 H        -5.2082136996       -2.5116108487       -4.5437790561
 H        -5.8784488963       -3.3913270855       -7.3701186194
 H        -6.3131441106       -4.3363687676       -5.9308886527
 H        -3.2121243491       -7.1748823080       -3.1490255841
 H        -4.8268411436       -7.4643525829       -3.5548854774
 H        -4.8881995799       -7.2691759025       -1.3186910646
 H        -5.4394490263       -5.7488299221       -1.7694931369
 H        -5.7654942662       -3.6095800128       -0.6322655610
 H        -4.9356833837       -3.0900809931       -2.0328775979
 H        -6.2201278231       -1.3031188184       -0.8443079151
 H        -4.5679225252       -0.9144412213       -1.1577849593
 H        -7.6074814600       -0.7198850603        3.4281973653
 H        -7.1822295603       -1.7139057481        2.0810713164
 H        -8.5842799227       -0.5440543739        2.0016336857
 H        -4.1587950339        1.0616239297        3.1460071624
 H        -3.4568675381       -0.5254094947        2.6839317650
 H        -4.7559187861       -0.6376343805        3.6152965358
 H        -3.4386237447        1.3118129943        0.5184522219
 H        -4.9550077799        2.1043872982        0.9190124380
 H        -4.8142198348        1.0006157245       -0.4451723489
 H        -4.6056228016       -6.3172505368        1.3366598265
 H        -5.6431088053       -5.2487205951        0.4577727413
 H        -4.7869652278       -4.5916691371        1.8602536498
 H        -2.2908796940       -5.5844437849        1.9442803353
 H        -1.9730839565       -3.8960436786        1.3786861075
 H        -1.3657245028       -5.2131572452        0.5106361195
 H        -4.5577022767       -6.9268716882       -7.3617312543
 H        -5.8430413688       -6.3130936597       -6.3664042009
 H        -4.7899305956       -7.5476757554       -5.6781368355
 H        -2.0451866672       -5.9798648192       -6.8094925523
 H        -2.2657877554       -7.1473446217       -5.5076391300
 H        -1.7598277135       -5.5035508095       -5.1897637080
 H        -5.7602950458       -0.0680563919       -3.3665833812
 H        -7.4280309183        0.0204087113       -4.3681065247
 H        -6.4855135569        1.4307807453       -3.6698865233
 H        -5.1194133004        1.9679744817       -6.9856181442
 H        -6.3896867155        2.3415952879       -5.9557812377
 H        -6.7662627827        1.1276437571       -7.0854037992
 H         0.8100355783        0.9566597413       -4.0001801009
 H         1.5072237320       -0.2851094319       -2.9952396598
 H        -0.2523660291        0.1851089821       -3.0473334985
 H         2.2477583572       -2.1860337270       -5.0999150381
 H         2.0075788469       -0.6533262564       -6.0195140034
 H         1.1516696574       -2.3023216963       -6.3238037966
 H         1.7219973858       -7.9379862623       -1.9621740726
 H         0.4400794987       -7.0935167812       -2.6862772755
 H         0.9959333459       -6.5754068997       -1.1137414781
 H         4.4669421155       -5.3178602164       -2.7344589526
 H         4.1529132020       -7.0785699273       -2.3771806782
 H         3.8308460032       -5.8366518666       -1.1741859831
 H        -0.0090640851       -7.9669588491       -8.0931379031
 H         1.7532878511       -8.4015362753       -7.9935607288
 H         0.8638893364       -8.3705939977       -9.5965840113
 H         3.5140000942       -6.8607928475       -8.9360393005
 H         3.1736705371       -5.3353917995       -9.8699778690
 H         2.5444759846       -6.9625907899      -10.5481107623
 H        -3.8074099830       -3.7402196475       -9.1125757141
 H        -4.8312156014       -2.9837202002      -10.2592937339
 H        -3.3605364873       -2.1443058933       -9.5914255290
 H        -2.7960367030       -5.8485894994      -10.8226515199
 H        -3.2557118798       -5.5252904325      -12.4329501507
 H        -4.4657891262       -5.3137473141      -11.2042109976
 H        -1.5879708834        0.3168685618      -17.4515015690
 H        -1.5050452822       -1.2264342011      -16.5966716698
 H        -1.2640095275        0.1053597864      -15.6255477246
 H        -3.2622201350        2.1952049843      -15.0997966641
 H        -4.5507946142        1.7830583576      -15.9522151013
 H        -3.0957659297        2.0577801834      -16.8283480243
 H        -5.4358657263       -3.1204287756      -21.8621623277
 H        -6.7597979444       -2.6018063566      -22.7826394139
 H        -6.9684030059       -2.6721668042      -21.0890154655
 H        -4.2066937356       -1.5948741909      -23.1046658277
 H        -3.9722260097       -0.0388836668      -22.5062066298
 H        -5.3379711327       -0.1727546326      -23.6462271774
 H        -9.6573112736        4.3073291921      -22.0749965153
 H       -10.5639827889        3.6749661928      -23.3686077359
 H       -10.1346485226        5.3175492557      -23.4769724633
 H        -9.3803656448        4.8856882239      -25.8244112456
 H        -9.0582301041        3.3242584900      -26.0171629340
 H        -7.6550206926        4.3608883182      -25.9991671711
 H        -6.7078908116        5.5335264308      -20.0817841124
 H        -5.8088126870        5.0172874879      -18.7431886871
 H        -6.2021601972        3.8697948453      -20.2571153570
 H        -4.1225775658        7.3587189981      -21.5204977945
 H        -4.0833933964        7.4497828440      -19.8939991942
 H        -5.6484931043        7.2829164845      -20.6438526116
 Na       -4.4858389509        1.9027264489      -19.8308497552
 Na       -1.0529439743       -3.4758488833       -7.2911716249
