232

 C        -2.3520439746        5.9875438796      -19.7334283314
 C        -3.4747628736        5.0387171022      -19.8717751301
 O        -3.4678977194        3.9359838334      -19.4165976462
 C        -4.7544939946        5.4670845120      -20.6995913232
 C        -4.7865600754        4.5534038908      -21.9674088988
 O        -4.8271787070        3.3700064142      -21.8354873193
 C        -4.8623709034        5.0758402947      -23.4164016332
 C        -5.9752801887        4.6578934247      -24.2780194318
 C        -7.3670831160        4.8121210013      -23.6398985045
 O        -7.4369676533        5.6032611012      -22.6945943692
 C        -8.4915926608        3.9045204717      -24.0903846630
 C        -7.9590263075        2.3254044976      -23.7027884480
 O        -6.9949616500        1.8136145478      -24.2540686129
 C        -8.7853080462        1.5098964480      -22.7547791498
 C        -8.1248603767        0.1745639786      -22.5318487627
 C        -6.8709514813        0.2528780644      -21.6465277678
 O        -6.6829702986        1.2117437958      -20.9315174872
 C        -5.9242408657       -1.0198129793      -21.7417049385
 C        -5.0258717902       -0.9514352469      -20.4716877930
 O        -3.8801839765       -0.5494222591      -20.6102181789
 C        -5.4960105877       -1.6723868778      -19.1408268344
 C        -4.6211324958       -1.4027083856      -17.8552636558
 C        -4.3614194731       -0.0111249548      -17.3586024537
 O        -4.8651978708        1.0089966625      -17.7596786627
 C        -3.3087431725        0.1569947213      -16.2427966661
 C        -3.7590193246       -0.6655013798      -14.9200650978
 O        -4.6263425888       -1.4681755429      -14.9684106536
 C        -3.1139924651       -0.3540275133      -13.5718005872
 C        -3.5109841656       -1.2198816848      -12.3682358398
 C        -3.0656593015       -2.6697188052      -12.4189661666
 O        -2.7998817399       -3.1719331192      -13.4989889063
 C        -3.0093051852       -3.4973959446      -11.1430321936
 C        -1.4447897290       -3.3470688214      -10.8225262332
 O        -1.0832352409       -2.3946406376      -10.0841117568
 C        -0.3697213426       -4.0964485015      -11.7074623602
 C         0.7669245953       -4.7339123892      -10.8589231557
 C         0.2928920955       -5.4875150337       -9.6473996945
 O        -0.8278835067       -5.3882648172       -9.2112131663
 C         1.3335404850       -6.3865722895       -8.8554937519
 C         1.7032715641       -5.7668352618       -7.3762537281
 O         0.9280591408       -5.0737478175       -6.8006060162
 C         3.1199461324       -5.9605628305       -6.7864008232
 C         3.1219508088       -5.5918469267       -5.2389179922
 C         2.1791467240       -6.4687915650       -4.3486032358
 O         1.5175522789       -7.3246707054       -4.7995898487
 C         2.2204902607       -6.0712912112       -2.7898737495
 C         1.7266877886       -4.5519461310       -2.6743173319
 O         2.4969609427       -3.6686688871       -2.9457105883
 C         0.1684842955       -4.1664579241       -2.3308331670
 C        -0.1640863718       -2.6705702335       -2.6349162435
 C        -0.3201567904       -2.4548526868       -4.1356679193
 O        -0.9713701339       -3.3065663469       -4.7438528489
 C         0.3343679526       -1.1418738001       -4.7152919539
 C        -0.6775354432       -0.6201770058       -5.7153107164
 O        -0.8249309738       -1.3579974255       -6.7382537285
 C        -1.3061719925        0.7547760280       -5.5642584831
 C        -2.7614336790        0.9113192660       -6.0764225180
 C        -3.7500914491        0.6081588270       -4.8516010564
 O        -3.5014031683        0.7776230315       -3.7016396097
 C        -5.2575560240        0.3518420987       -5.3768095942
 C        -5.2665459239       -1.1008190909       -6.1215911885
 O        -5.1758356770       -1.1952617003       -7.3333567974
 C        -5.1436737517       -2.4127508057       -5.2423961784
 C        -5.3518301244       -3.6545685684       -6.0167379914
 C        -3.9971919635       -4.2582199358       -6.3488030997
 O        -3.2417967895       -3.6975847864       -7.1449228176
 C        -3.8200967744       -5.6984375885       -5.8009295149
 C        -3.9077442130       -5.5754108872       -4.1212104717
 O        -4.0244204994       -4.4656138336       -3.6358020854
 C        -3.9073438150       -6.8674895206       -3.2774558384
 C        -4.2526545298       -6.4750085538       -1.8702540237
 C        -3.1348691170       -5.8594548863       -0.9844735098
 O        -1.9775265185       -6.1627029601       -1.0940456126
 C        -3.4564926781       -4.9182910359        0.2538106297
 C        -3.6862864357       -3.4772849086       -0.3933603262
 O        -2.6615847109       -2.9571831853       -0.8308928310
 C        -5.1036208603       -2.9317832768       -0.6658320489
 C        -5.1959954209       -1.3833427352       -0.3088835116
 C        -4.9835347073       -1.2576086299        1.1837605304
 O        -4.6500644404       -2.2767196868        1.8070080933
 C        -5.2491865065        0.0659602849        1.8522321792
 C        -6.8105936617        0.2642369927        2.2901287009
 O        -7.3431142072        1.2874729950        1.8447252695
 C        -7.4367907025       -0.8493707403        3.1590622813
 C        -4.3627946874        0.1686767333        3.0999324181
 C        -4.9481591797        1.2737116898        0.8445737913
 C        -4.6403309668       -5.4870367812        1.0564160175
 C        -2.2263039878       -4.6999611305        1.1843199364
 C        -4.9587959918       -6.6184237250       -6.4591214374
 C        -2.4132063959       -6.1768289983       -6.0717163653
 C        -6.2950558327        0.2484760422       -4.1260999227
 C        -5.7703924149        1.4817638706       -6.2690956444
 C         0.4662400802       -0.0937770210       -3.6665709112
 C         1.6439929355       -1.5596789261       -5.3827306349
 C         1.3459607038       -7.0193679313       -1.9400619267
 C         3.6834393178       -6.3645550577       -2.3981578282
 C         0.6318819378       -7.7403465364       -8.5477833722
 C         2.7142418170       -6.7629265933       -9.6498391599
 C        -3.9738492455       -2.8658859082      -10.1036942360
 C        -3.2921249418       -4.9235738635      -11.5173945842
 C        -1.9044664344       -0.3905249810      -16.5565643334
 C        -3.1439368747        1.6791950261      -15.7639639679
 C        -6.8655167393       -2.2513628641      -21.9391507323
 C        -4.9975930962       -0.8330824377      -22.9945891670
 C        -9.7199024481        4.2008979581      -23.1991346333
 C        -8.7016483884        4.0772920905      -25.7263874769
 C        -5.8797722553        5.1646127976      -19.6364127035
 C        -5.0068356475        6.9835941889      -20.9092121651
 H        -2.6907077038        7.0085860969      -19.4978529333
 H        -1.8499266457        5.9898963062      -20.6783498554
 H        -1.5426456352        5.6357441067      -19.0729954315
 H        -4.0669945863        4.6172821455      -23.8912562178
 H        -4.7364445669        6.1267399281      -23.5160984905
 H        -5.8982978654        3.6834880503      -24.6741895914
 H        -5.9819775890        5.2072804425      -25.1588645358
 H        -9.7798738062        1.3713651113      -23.2506140701
 H        -8.9910566160        1.9619463275      -21.7578499749
 H        -7.9141987339       -0.1693416631      -23.5898477968
 H        -8.8366223869       -0.5887247042      -22.1016824082
 H        -5.6195782831       -2.7792761133      -19.2922426724
 H        -6.5654197364       -1.4136070029      -19.1535945525
 H        -3.5886711655       -1.8989474038      -18.0671808708
 H        -5.0189147634       -1.9800635878      -16.9911990278
 H        -3.3465097526        0.6822970020      -13.3025110514
 H        -1.9837651881       -0.3833961284      -13.5598153401
 H        -4.6259946896       -1.1583263266      -12.4769780317
 H        -3.2228682522       -0.7828851265      -11.4232744320
 H        -0.0730001098       -3.3710283866      -12.4371799652
 H        -0.7416988729       -4.9340008074      -12.3166146730
 H         1.5592364102       -3.9944626955      -10.4310287645
 H         1.3160721474       -5.3697519151      -11.6301519310
 H         3.6977332464       -5.2792271645       -7.4243342479
 H         3.4513417561       -6.9139839203       -6.9213160910
 H         2.7883121363       -4.5633101564       -5.0100360545
 H         4.0982679482       -5.8024162649       -4.7836026230
 H        -0.1186912696       -4.2972590288       -1.2083778882
 H        -0.4692342443       -4.9590718954       -2.8365955264
 H         0.6589509181       -2.0873907538       -2.1497904960
 H        -1.1623429944       -2.5839281260       -2.1876499662
 H        -0.5122860448        1.4914818526       -6.0747801929
 H        -1.3645489070        1.1268082938       -4.5562338427
 H        -2.9265462787        0.1919475557       -6.8510059693
 H        -2.6815886542        1.9117043516       -6.6155324873
 H        -5.8569617343       -2.2984312086       -4.3632825762
 H        -4.1446951648       -2.4132298809       -4.7032161113
 H        -5.9877601270       -3.4313658054       -6.9039704716
 H        -5.9354623563       -4.2942867988       -5.3005789692
 H        -3.0033506292       -7.5333690629       -3.4100080139
 H        -4.7297262902       -7.5279494440       -3.5508989030
 H        -4.6181010409       -7.2825480813       -1.2585219629
 H        -5.1375499865       -5.8213428058       -2.0753567360
 H        -5.9452881050       -3.5351789660       -0.2872089986
 H        -5.2909966429       -2.9939317352       -1.8136139848
 H        -6.2173089218       -1.0309527734       -0.5928346320
 H        -4.4894232618       -0.7178812662       -0.9030445336
 H        -7.5229997131       -0.5615874728        4.1659183313
 H        -6.8228140245       -1.7742711287        3.1282998871
 H        -8.4349070189       -1.0815970446        2.9205195241
 H        -4.8489824613        0.8343164917        3.7800792323
 H        -3.4007279510        0.6262858838        3.0124332169
 H        -4.1859406245       -0.8555599803        3.5494000591
 H        -4.1719442209        0.9348030390        0.1402717925
 H        -4.7830601194        2.2742740142        1.2601601772
 H        -5.8101970104        1.4680901170        0.1491349070
 H        -4.2750257096       -6.2990204606        1.6588347060
 H        -5.3887388893       -5.8940733038        0.3960362042
 H        -5.0128969442       -4.5526563277        1.5450949967
 H        -1.7697524016       -5.6902811102        1.1687746408
 H        -2.5915560928       -4.4992748731        2.2372695764
 H        -1.5034221307       -3.8982643524        0.8160767329
 H        -4.6249382355       -6.8338530620       -7.4500977533
 H        -5.9474461234       -6.1667021169       -6.4915945358
 H        -4.9694140193       -7.5877830619       -5.8588627884
 H        -2.1315247665       -6.3258149142       -7.0924825950
 H        -2.2896249713       -7.2231849607       -5.6840730455
 H        -1.6345818520       -5.5850001534       -5.6847626425
 H        -5.8877262460       -0.5773759617       -3.5077124122
 H        -7.2998181867       -0.0740361757       -4.4718781537
 H        -6.1505396922        1.1657374348       -3.6181296846
 H        -5.1426701383        1.5227433790       -7.2498517847
 H        -5.8753577257        2.5113886358       -5.9512699200
 H        -6.7193021558        1.1270161788       -6.7601020869
 H         0.9182817824        0.8313377116       -4.0353697527
 H         1.1625466810       -0.4229141679       -2.9316739826
 H        -0.4779546719        0.2649355640       -3.2458805144
 H         2.3076430846       -2.0010870932       -4.6383610443
 H         2.2435248424       -0.7679103543       -5.8485086309
 H         1.4064531644       -2.3811429762       -6.1120246956
 H         1.6947792950       -8.0843579577       -2.1674502427
 H         0.2253040748       -6.8882179252       -2.0263143652
 H         1.5346818124       -6.7192589269       -0.9343290320
 H         4.3655522152       -5.4813062511       -2.7002123758
 H         4.0203038690       -7.2042694401       -2.8880957093
 H         3.8405365455       -6.3751370898       -1.3195512716
 H        -0.2183160406       -7.6394064010       -7.9716574905
 H         1.3511225932       -8.3873114116       -8.1373187759
 H         0.3473040136       -8.2140461228       -9.5116966652
 H         3.1053649572       -7.6468517264       -9.1566211156
 H         3.3425739066       -5.8739272374       -9.6818465139
 H         2.4341394097       -7.0848755873      -10.6110525183
 H        -4.4181710339       -3.5995264705       -9.4275389738
 H        -4.8413896300       -2.3177982482      -10.4917798681
 H        -3.3496368935       -2.2440167791       -9.4426651201
 H        -3.1110279936       -5.7093233921      -10.7036581220
 H        -2.6731265915       -5.2264032236      -12.3999155551
 H        -4.2780929179       -4.9526499407      -11.9227484230
 H        -1.7080790430       -0.4161271647      -17.6598535329
 H        -1.8838623018       -1.4459267479      -16.2719574710
 H        -1.2286570060        0.1235683827      -15.8802602875
 H        -2.3400544730        1.9109898434      -15.0345376541
 H        -3.9626449064        2.0056593636      -15.0728729052
 H        -2.9839723960        2.3078143826      -16.6317589810
 H        -6.2335964338       -3.2213846646      -21.9595108502
 H        -7.3132820730       -2.2880720678      -22.8549417921
 H        -7.6435992624       -2.2754912116      -21.1539842880
 H        -4.0927151818       -1.4142219439      -22.9155735098
 H        -4.8599278076        0.2829426876      -23.1043503215
 H        -5.6089032093       -0.9686492814      -23.8223707618
 H        -9.4497033356        4.0327641604      -22.0791892803
 H       -10.5597864575        3.5925752113      -23.4285909278
 H        -9.9636839017        5.2500819900      -23.3627975121
 H        -8.5854742321        5.1361344642      -25.9472835836
 H        -9.6840815873        3.7524400944      -26.1393296002
 H        -7.8546629461        3.4943201390      -26.2619982073
 H        -6.7957374022        5.4475479201      -20.0523892225
 H        -5.7885453258        5.8391409168      -18.8511427502
 H        -5.9805128409        4.1453788739      -19.2414536738
 H        -4.0839743989        7.4720796796      -21.3204556066
 H        -5.2674998022        7.5883796048      -20.0486607349
 H        -5.7563838131        7.2313546545      -21.7057008950
 Na       -4.6523683916        1.9752826499      -20.0503193225
 Na       -0.9174210641       -3.6277875403       -7.2520065807
