232

 C        -2.5735274724        6.1710647458      -19.6430308132
 C        -3.7457779363        5.1572597752      -19.9100384134
 O        -3.4188908993        4.0073022525      -19.5195028051
 C        -4.9333100493        5.5105675165      -20.7747706650
 C        -4.9461432965        4.6450528643      -22.0465448729
 O        -5.0830668840        3.4022836338      -21.9774318318
 C        -4.7687015321        5.3131802170      -23.3488570563
 C        -5.7719268452        4.5632905301      -24.3084564687
 C        -7.1353737030        4.5469450103      -23.6225222587
 O        -7.1839817908        5.3648717003      -22.7492168914
 C        -8.3783560420        3.7602402458      -24.1203845236
 C        -7.9867469996        2.2892155445      -23.7883159950
 O        -6.9710249847        1.8896824334      -24.2923562600
 C        -8.9853717979        1.4384265841      -22.9284940586
 C        -8.3704456373        0.0582227081      -22.5698644661
 C        -7.1230595373        0.1625388165      -21.6530416517
 O        -6.8942031904        1.1510072796      -20.9771369878
 C        -6.0281059890       -1.0427408198      -21.6429395022
 C        -5.0782141470       -0.8246235494      -20.3973071350
 O        -3.9756993381       -0.2675820904      -20.5015808994
 C        -5.6681151756       -1.3244636911      -19.0561374471
 C        -4.5379203504       -1.2633975741      -18.0916144711
 C        -4.3899240387        0.1291462883      -17.4125678096
 O        -5.0108407014        1.1227025450      -17.7968794415
 C        -3.3886234948        0.2823856860      -16.3145803211
 C        -3.9450018971       -0.4554354879      -14.9088306011
 O        -4.9080097675       -1.2149818385      -14.8547043597
 C        -3.1289812997       -0.2198429913      -13.6565578931
 C        -3.5665975856       -1.1456505560      -12.4355121088
 C        -2.9262423072       -2.4733297157      -12.4857865662
 O        -2.4298592673       -2.8327071744      -13.5266527229
 C        -2.8403997328       -3.3453000250      -11.1719431136
 C        -1.3792624376       -3.2679434552      -10.6125973551
 O        -1.1014258873       -2.6520653282       -9.6291527940
 C        -0.2216927307       -3.9315482785      -11.5391006621
 C         0.9651884352       -4.5598022859      -10.7558371183
 C         0.4025812748       -5.3815901103       -9.6180994367
 O        -0.7333615412       -5.2112036788       -9.1578385798
 C         1.3061659648       -6.4164935523       -8.8167320664
 C         1.6873730736       -5.6429707858       -7.4694354527
 O         0.8876446446       -4.9818658965       -6.8025074376
 C         2.9986570564       -6.0622010168       -6.7439369919
 C         3.1454318763       -5.6709899141       -5.3374875082
 C         2.1933554929       -6.5300155669       -4.4001687471
 O         1.4917690278       -7.4161780846       -4.8991297984
 C         2.1436520523       -6.1951670780       -2.8877559573
 C         1.4911162632       -4.7517490865       -2.8180674043
 O         2.2469223579       -3.7720723455       -2.8974319192
 C         0.0595650141       -4.5129711414       -2.4432379918
 C        -0.1490034690       -2.9707463287       -2.6224278277
 C        -0.2796712660       -2.5810149468       -4.0932583581
 O        -0.8176386537       -3.3383123909       -4.8496447224
 C         0.2639980455       -1.2182873759       -4.6882312592
 C        -0.6789598391       -0.6320130717       -5.8745736452
 O        -0.7229971614       -1.1412915670       -6.9222282967
 C        -1.2263353116        0.8223315747       -5.7700451520
 C        -2.6925954212        0.7745038342       -6.2466651757
 C        -3.6860356251        0.6207807559       -4.9784631016
 O        -3.2754609977        0.8396730032       -3.8251359322
 C        -5.1660054635        0.2968115505       -5.3321378652
 C        -5.1660779850       -1.0882289534       -6.0958859764
 O        -5.4416010456       -1.1871758856       -7.2384469524
 C        -4.9566482312       -2.3059450959       -5.2046973068
 C        -5.2221816678       -3.6555970159       -6.0072680632
 C        -3.9668444441       -4.3304305243       -6.2987178558
 O        -3.2517268721       -3.9511497928       -7.2141437033
 C        -3.6882723815       -5.7536614689       -5.6370475375
 C        -3.6588996300       -5.5880455459       -4.0834424090
 O        -3.7555187781       -4.4387686063       -3.6510671810
 C        -3.5333619671       -6.8774458139       -3.2306430291
 C        -4.0959183259       -6.6159077041       -1.8034985927
 C        -3.0215436574       -5.8990894094       -1.0435505479
 O        -1.8456396688       -6.2195140499       -1.2648628262
 C        -3.4641129887       -4.9706007551        0.1364252547
 C        -3.7615979166       -3.5525354930       -0.5270197510
 O        -2.8815284108       -2.8860716063       -1.0293756395
 C        -5.1938780750       -2.9829508814       -0.6222517892
 C        -5.1995811085       -1.5047364397       -0.1790216316
 C        -4.8773939399       -1.2280200171        1.3208720079
 O        -4.4839070560       -2.1264740430        2.0137917548
 C        -5.2744736423        0.1986820445        1.9757135769
 C        -6.8632983353        0.1474552457        2.3653108686
 O        -7.7473085911        0.6822533202        1.7509648603
 C        -7.2019806846       -0.7464866585        3.6329310475
 C        -4.4484163982        0.3721334004        3.3140976452
 C        -4.9760041169        1.4147533883        1.0857515514
 C        -4.6943719860       -5.4920991833        0.9100396354
 C        -2.3039174664       -4.7539688128        1.1781333063
 C        -4.8152017160       -6.7780980576       -6.1008783464
 C        -2.3893111179       -6.3633510857       -6.0682765488
 C        -6.0230072827        0.3076059226       -4.0264880914
 C        -5.6572955651        1.3794053978       -6.3892529815
 C         0.7233941326       -0.2353965403       -3.5091894772
 C         1.6591088367       -1.5766335154       -5.4153237479
 C         1.3020892571       -7.2981377253       -2.2015349125
 C         3.5915577827       -5.9142141784       -2.2549759118
 C         0.4239954111       -7.5742557788       -8.3607006908
 C         2.5768240424       -6.8230197176       -9.6256753417
 C        -3.8163593887       -2.8993764679      -10.0068325552
 C        -3.2769556476       -4.8504347495      -11.4028461842
 C        -2.1337953580       -0.5682307867      -16.7830464621
 C        -2.9385577105        1.6771936569      -15.9917723332
 C        -6.7151636019       -2.4628840946      -21.5320941853
 C        -5.2797903221       -0.8422362789      -22.9792904639
 C        -9.6492399005        4.2770492355      -23.4746740801
 C        -8.6536574254        3.8785713514      -25.6269958116
 C        -6.2134411792        5.0871827750      -19.9442237818
 C        -4.9396725445        7.0051606558      -21.0845439048
 H        -2.8596767613        7.2401213695      -19.7425455266
 H        -1.7509217442        5.9760454159      -20.3476374970
 H        -2.1157209036        6.0950938642      -18.6798711864
 H        -3.6844504928        5.3322816051      -23.7602896911
 H        -5.1117257902        6.3508261491      -23.1957471842
 H        -5.4273844245        3.5820584920      -24.7739756627
 H        -6.0594722694        5.1117861698      -25.3101876573
 H        -9.9464405633        1.3733321139      -23.4639080454
 H        -9.1229064198        1.9296178583      -21.9705890928
 H        -8.2385165565       -0.4382761384      -23.5263843165
 H        -9.0326614726       -0.5976427553      -22.0121984310
 H        -5.9813436856       -2.3161753485      -19.2078168823
 H        -6.6164533844       -0.8382597888      -18.8552060505
 H        -3.6682546365       -1.4463452279      -18.6138059050
 H        -4.5680380009       -2.0548112730      -17.3356360313
 H        -3.1989891204        0.8399826880      -13.3040582087
 H        -2.0703096125       -0.3540559374      -13.7275109175
 H        -4.6424119356       -1.2593915106      -12.3979701815
 H        -3.2723951305       -0.6380341342      -11.4764029247
 H         0.1332317544       -3.1582297583      -12.2520881883
 H        -0.5834798830       -4.6540824663      -12.2598554693
 H         1.5944939318       -3.7834441451      -10.4354352036
 H         1.5630120333       -5.1066458702      -11.4438665485
 H         3.8196319878       -5.5428385447       -7.3527512096
 H         3.1263021041       -7.1868474045       -6.8469178704
 H         2.8370679580       -4.6475542524       -5.2350892862
 H         4.1352610717       -5.8163396385       -4.9521991567
 H        -0.1306343581       -4.8767575620       -1.4949760258
 H        -0.5927194727       -5.0674605977       -3.0681382982
 H         0.6663208627       -2.4260263703       -2.1752413782
 H        -1.1270100322       -2.7769450540       -2.1670851019
 H        -0.5749544883        1.4468620060       -6.2401766043
 H        -1.3414038814        1.1810113068       -4.7238096800
 H        -2.7635812119        0.0313442219       -7.0623376856
 H        -2.8364778501        1.7581932108       -6.6162379199
 H        -5.5144868609       -2.2077910852       -4.2989633323
 H        -3.9212260489       -2.1249550534       -4.9039345401
 H        -5.6460432733       -3.2426848009       -6.9506741431
 H        -5.9801023519       -4.1770132188       -5.4431799691
 H        -2.5686601261       -7.2700079475       -3.0405497690
 H        -4.0782314570       -7.7186097692       -3.6821888658
 H        -4.2515353744       -7.5354101512       -1.2341887908
 H        -4.9706635297       -6.0240689592       -1.8216613055
 H        -5.9346082051       -3.5388330366       -0.0338580841
 H        -5.5511281632       -3.1010654512       -1.5978960082
 H        -6.0848846072       -0.9938913446       -0.5681460342
 H        -4.3784113345       -0.9736675958       -0.6268621750
 H        -7.2408106643       -0.1762301019        4.6136808265
 H        -6.6297687643       -1.6382252706        3.7607841066
 H        -8.2710313168       -1.1106628469        3.6032368452
 H        -4.5317159263        1.2503000199        4.0045538439
 H        -3.3548688502        0.4090981108        3.0624585774
 H        -4.6754973093       -0.5481259907        3.8558962981
 H        -3.9062488185        1.5239812040        0.8603847536
 H        -5.4674595256        2.2755305378        1.5452709997
 H        -5.5317916637        1.4145328815        0.1428219389
 H        -4.3315116989       -6.4597296160        1.2042394061
 H        -5.5717711898       -5.6076985750        0.3353685287
 H        -4.8243494469       -4.8393985698        1.7664173743
 H        -1.5054733814       -5.5126933432        1.2196597113
 H        -2.8176882539       -4.8027058505        2.1183686022
 H        -1.9625068441       -3.7671535487        1.0291596267
 H        -5.1757972316       -6.5362340237       -7.1239242449
 H        -5.6279175241       -6.8489906589       -5.3753155031
 H        -4.3322719100       -7.7253597168       -6.1933176267
 H        -2.1777941444       -6.2591203118       -7.1691104896
 H        -2.2786491803       -7.4059461658       -5.9238243429
 H        -1.4895184265       -5.8488218029       -5.6462233684
 H        -5.5218657955       -0.1133746564       -3.1733977797
 H        -6.6965804482       -0.4907202122       -4.2766145232
 H        -6.4453068731        1.3461412559       -3.9372256285
 H        -5.6095069515        1.0702234596       -7.3604303627
 H        -5.0665750225        2.3252588306       -6.2743724498
 H        -6.6888041164        1.7349342193       -6.3222248807
 H         0.8930036043        0.7665843084       -3.8554700198
 H         1.7057199216       -0.5591752061       -3.1549927247
 H         0.0800687807       -0.1846471502       -2.6235885170
 H         2.4266145315       -1.8619821983       -4.6478231968
 H         2.0803249390       -0.6869350003       -5.8829667573
 H         1.5566508039       -2.3448426982       -6.2178748894
 H         1.6902254613       -8.2480231237       -2.3406545530
 H         0.3373064665       -7.1764791176       -2.5724169513
 H         1.1441939188       -7.0790053140       -1.1027093339
 H         4.1424618462       -5.1590525560       -2.6878776397
 H         4.3510797830       -6.8117962500       -2.2335189345
 H         3.3713824035       -5.5946236557       -1.2333861020
 H        -0.5443256323       -7.0439443874       -8.1155633775
 H         0.8298052512       -8.1009115153       -7.4740299556
 H         0.2960059625       -8.3269000564       -9.1048791170
 H         3.1282192356       -7.5446506697       -9.0096180492
 H         3.0920013360       -5.9292632676       -9.9783580994
 H         2.2668761213       -7.5290411859      -10.5031818545
 H        -3.6153287276       -3.3930694736       -9.0529152061
 H        -4.7927785843       -3.2646316368      -10.3247424282
 H        -3.9069505785       -1.8651196191       -9.8174191361
 H        -3.0636015211       -5.3733054877      -10.5042456480
 H        -2.6851576549       -5.3148587232      -12.2070185173
 H        -4.3711699003       -4.9881515937      -11.7169015750
 H        -1.6462264547       -0.2040949714      -17.6625322342
 H        -2.4828816829       -1.5889675653      -16.9574953420
 H        -1.4274210813       -0.4779022111      -15.9147078999
 H        -1.8894613500        1.7433179805      -15.8573982317
 H        -3.3612044713        1.9922974054      -15.0556747196
 H        -3.1504377224        2.3939536261      -16.7400274887
 H        -5.9890430290       -3.2053213385      -21.5626374313
 H        -7.2979892968       -2.5396524664      -22.5248529616
 H        -7.4244287854       -2.6305526571      -20.7337055616
 H        -4.7841138392       -1.7895035216      -23.1119988359
 H        -4.7569371359        0.0922291784      -23.0422772815
 H        -6.0176675595       -0.7541785205      -23.8200610152
 H        -9.3691059665        4.4594092752      -22.5035638046
 H       -10.4017071850        3.5043163164      -23.5216150059
 H        -9.9877987731        5.2381830897      -23.8106375906
 H        -8.5434164697        4.9357509172      -25.9597379550
 H        -9.6070207299        3.4071182357      -25.8071874814
 H        -7.9607645921        3.3307341746      -26.1575234664
 H        -7.1795988334        4.8706917817      -20.4891454466
 H        -6.4820858231        5.8271509079      -19.0726782799
 H        -5.9044426471        4.2368768581      -19.3323526726
 H        -4.3375307933        7.4388606609      -21.8870573320
 H        -4.8174903461        7.5619538196      -20.1407003891
 H        -5.9014287308        7.3497591181      -21.3306533850
 Na       -4.6975736335        1.8780955886      -20.0338925903
 Na       -0.9737526030       -3.5635474005       -7.2561994356
