232

 C        -2.7370109583        6.0970927178      -19.4539934505
 C        -3.7363864967        5.1398547636      -19.8613541914
 O        -3.5010470690        3.9942168666      -19.5951931388
 C        -5.1430222066        5.5494736459      -20.7746592438
 C        -4.9311418060        4.6819643105      -22.0612782051
 O        -4.9252632206        3.4954356521      -21.9322747041
 C        -4.6593847740        5.1093398563      -23.5505780954
 C        -5.8194341371        4.4728055962      -24.3869757952
 C        -7.1667089536        4.5563879418      -23.7817666040
 O        -7.3873919245        5.3330574227      -22.8442176737
 C        -8.3091556323        3.6363586367      -24.2889617464
 C        -8.0102197724        2.1722155482      -23.8636199341
 O        -7.0085716892        1.6268877542      -24.2821929764
 C        -9.0938114834        1.4218137732      -22.9528378861
 C        -8.5585618579       -0.0048501074      -22.5462070097
 C        -7.2374040183        0.2000257158      -21.7150310403
 O        -7.0940884302        1.1470027840      -20.9402070513
 C        -6.1813504493       -1.0835185975      -21.7287006307
 C        -5.2697452355       -0.7441963590      -20.4515652083
 O        -4.3609514219        0.0176025400      -20.6736959088
 C        -5.8421279916       -1.1195972443      -19.0241750566
 C        -4.8387641537       -1.2372167409      -17.9220859168
 C        -4.2999197924        0.1426757393      -17.4429409670
 O        -4.8454057007        1.1937128916      -17.7292150447
 C        -3.2411381190        0.2588970250      -16.3298826203
 C        -4.0056663794       -0.1974590762      -15.0136637039
 O        -5.0631491273       -0.7827729023      -15.0531399842
 C        -3.2131129906       -0.0854762649      -13.6967701652
 C        -3.5181754811       -1.0717903906      -12.5152046334
 C        -2.7061473590       -2.3489162517      -12.4725791309
 O        -1.9628592230       -2.7287772145      -13.3623368804
 C        -2.7389967978       -3.1739223048      -11.1613931259
 C        -1.3058045576       -3.1334682314      -10.5352375878
 O        -1.1025108886       -2.7085795684       -9.4084988923
 C        -0.1564014972       -3.5879712148      -11.3708035033
 C         0.9211264928       -4.3270877425      -10.4827694122
 C         0.2899342823       -5.3461276275       -9.4372520199
 O        -0.8887481438       -5.3671636314       -9.2046221436
 C         1.2159416712       -6.3862516652       -8.6980912709
 C         1.7577974746       -5.6634928775       -7.3939606670
 O         1.1509563406       -4.7321811218       -6.9114000126
 C         3.0487123337       -6.1840224745       -6.7845812380
 C         3.2393256872       -5.7024723677       -5.3419622168
 C         2.2238018069       -6.4482903593       -4.4437037223
 O         1.5966546764       -7.3543614447       -4.9533036616
 C         2.0772227910       -6.1989249274       -2.9145127148
 C         1.5622596831       -4.6896378699       -2.9253007808
 O         2.2447887983       -3.7492285232       -3.2401399496
 C         0.0615807857       -4.4777639673       -2.6875996235
 C        -0.4934436308       -3.0760352607       -2.8098898332
 C        -0.3167119821       -2.6410406605       -4.2874352519
 O        -0.7244161403       -3.3765962585       -5.1891359660
 C         0.4237485130       -1.2845104120       -4.7176271438
 C        -0.4693546318       -0.6386530051       -5.7881981496
 O        -0.8251386939       -1.2800863360       -6.8335421662
 C        -1.0636534989        0.7708569724       -5.7166545560
 C        -2.4640252304        0.7630584470       -6.3157992577
 C        -3.4520060168        0.6385687125       -5.1646761429
 O        -3.2172943418        0.6882084142       -3.9913390955
 C        -5.1168652022        0.4275208206       -5.4068488013
 C        -5.1580575176       -1.0208985150       -6.0306687186
 O        -5.6125681701       -1.1772683826       -7.1973721374
 C        -4.7730349635       -2.3569231948       -5.2590160264
 C        -5.1818664709       -3.7263395003       -5.8911686936
 C        -3.8960005628       -4.4987825703       -6.2707764141
 O        -3.1290344731       -4.0036913641       -7.0596551121
 C        -3.6435195324       -5.8923914387       -5.6015685585
 C        -3.5323002566       -5.7528992242       -4.0388782621
 O        -3.5429580497       -4.6469716331       -3.5679218313
 C        -3.3585538791       -6.9888356617       -3.2220293186
 C        -3.9526202924       -6.7660386075       -1.7721739234
 C        -2.9361314736       -5.8752320009       -0.9594073041
 O        -1.7826901047       -6.1714917678       -1.0196761265
 C        -3.5356546472       -4.9227417444        0.1285286296
 C        -3.8603817789       -3.4539597315       -0.4904202369
 O        -3.0060902559       -2.8437675148       -1.1285378971
 C        -5.2486465603       -2.8417893997       -0.2331727705
 C        -5.2401375578       -1.3693173674        0.0167619518
 C        -4.9254685018       -1.1631793111        1.5338399710
 O        -4.4048205009       -2.0828083442        2.1402155362
 C        -5.2873937422        0.1486303062        2.2145802863
 C        -6.8282547778       -0.1494808398        2.5100322347
 O        -7.6619418111       -0.0495498926        1.6461390764
 C        -7.1427650017       -0.5923997637        3.8761577326
 C        -4.4289501024        0.4911208704        3.4272894493
 C        -5.2538057658        1.3475674231        1.1105215483
 C        -4.8006942871       -5.6765179395        0.8403672748
 C        -2.3160786860       -4.7104982532        1.0710784317
 C        -4.8142765136       -6.8965332002       -5.8163982333
 C        -2.3274296694       -6.3929676589       -6.1309531846
 C        -5.8567780481        0.5067557507       -3.9857964517
 C        -5.7564224355        1.4495134128       -6.3333105343
 C         0.6635393110       -0.2997401545       -3.5085233924
 C         1.7910518692       -1.8695464970       -5.4326794649
 C         1.2171935584       -7.3363571517       -2.1937419784
 C         3.4745252136       -6.2647193952       -2.1979482871
 C         0.3652093736       -7.6777139979       -8.2897802718
 C         2.4026151151       -6.8652349448       -9.5849862973
 C        -3.7541007889       -2.6436212367      -10.0779837228
 C        -3.0779487742       -4.6412066829      -11.6400187024
 C        -2.0307310094       -0.6792047777      -16.4282142418
 C        -2.8904176743        1.7830336458      -16.1491359170
 C        -6.8447373016       -2.4592617012      -21.6085113856
 C        -5.3195272499       -0.9393207404      -22.9872483340
 C        -9.5634324557        4.2237598992      -23.6083227138
 C        -8.4262537170        3.6517694504      -25.8569841445
 C        -6.2307434710        5.0438250105      -19.8832933880
 C        -5.2233940728        7.0681563718      -21.0904387412
 H        -2.9196188082        7.1090839984      -19.3260528985
 H        -1.9827167824        5.9857330974      -20.2658360617
 H        -2.2253701163        5.7452096505      -18.5100500161
 H        -3.8599615751        4.5465644651      -23.9153612215
 H        -4.4540840398        6.1561148976      -23.7753470391
 H        -5.5627560304        3.4781605071      -24.6453166714
 H        -5.8269387640        4.8892014913      -25.3223454340
 H        -9.9779266424        1.2977731741      -23.5942857939
 H        -9.2733978253        1.8917588565      -21.9772844932
 H        -8.4885331971       -0.5513115941      -23.4898247989
 H        -9.3774620339       -0.5352129300      -21.9941086657
 H        -6.5955926401       -1.9874124658      -19.1671136361
 H        -6.5074746757       -0.2843475756      -18.6975506299
 H        -3.8086314526       -1.6452949219      -18.3074094551
 H        -5.0662262147       -1.8736188589      -17.0788330322
 H        -3.2985686785        0.8482727778      -13.2191890286
 H        -2.1086446003       -0.0830527601      -13.7801707064
 H        -4.5979504262       -1.2843620577      -12.3993541957
 H        -3.3128635546       -0.5193584206      -11.6262002859
 H         0.2889673343       -2.7689204559      -11.9353292831
 H        -0.5785243075       -4.1867016002      -12.2044998123
 H         1.5348038945       -3.4034430744      -10.1174259985
 H         1.6861814296       -4.8034951298      -11.1309443775
 H         3.8599002400       -5.9414875979       -7.3945982646
 H         2.8992655724       -7.2727301975       -6.8071048469
 H         3.1707683340       -4.5940787318       -5.1955389950
 H         4.2292785417       -6.0645133713       -4.9142944057
 H        -0.0674200398       -4.9155323047       -1.6293121059
 H        -0.6061446553       -5.1598247429       -3.2782823560
 H         0.0720190894       -2.3905957638       -2.1265286730
 H        -1.5748573501       -3.1025492520       -2.5894503887
 H        -0.2903597474        1.3753188208       -6.3442140388
 H        -1.0705820603        1.1883526085       -4.7128822804
 H        -2.4237106978       -0.0725481304       -7.0263972074
 H        -2.8179049324        1.7462589267       -6.7947548986
 H        -5.2800833726       -2.2222392710       -4.2580931971
 H        -3.6912792624       -2.3785488163       -5.1492205698
 H        -5.7623471567       -3.5672415622       -6.7487838099
 H        -5.7801658247       -4.0965307264       -5.0738058674
 H        -2.2751373961       -7.2497663564       -3.0180028514
 H        -3.7653072407       -7.8969891956       -3.6242262137
 H        -4.0038524562       -7.7615448935       -1.2675694510
 H        -4.9675104121       -6.2373484214       -1.8430033446
 H        -5.8586900218       -3.3656494593        0.4817724688
 H        -5.7175060979       -3.0827808312       -1.2440013311
 H        -6.2143847358       -0.9313153547       -0.1257693527
 H        -4.5703388943       -0.8762980413       -0.7084084734
 H        -6.8886008043        0.1775681831        4.5427237958
 H        -6.5505690593       -1.5174946224        4.1009210972
 H        -8.1286636576       -0.8715102095        4.1332102264
 H        -4.7799875972        1.4785687812        3.7481120276
 H        -3.4127920015        0.6787008040        3.2038991100
 H        -4.6887116995       -0.0632587272        4.3169734709
 H        -4.2281387636        1.7262726380        1.0221250484
 H        -5.9744217331        2.1276861639        1.2907814355
 H        -5.6386986937        0.9517906338        0.1691918961
 H        -4.5381868671       -6.6431256468        1.3263273106
 H        -5.5979796831       -5.7602006892        0.0029760998
 H        -5.0927835742       -4.9231199991        1.5578117977
 H        -2.0519047538       -5.7007946781        1.3878580289
 H        -2.5968662183       -4.1925856373        1.9676749277
 H        -1.5839911487       -4.1848849387        0.4396685924
 H        -5.1950255830       -6.7789716882       -6.8070983114
 H        -5.5390526229       -6.7502464585       -5.0238503000
 H        -4.4255007118       -7.9099125908       -5.8014878236
 H        -2.2773835176       -6.6600051841       -7.1254130658
 H        -1.9746514861       -7.3116529621       -5.6196511449
 H        -1.5570137501       -5.6783907536       -6.0174366945
 H        -5.2925405279       -0.1322057125       -3.3395348661
 H        -6.8207712436        0.0545337748       -3.9753892053
 H        -5.8182299169        1.5288588493       -3.8371467669
 H        -5.7220998375        1.2434018242       -7.4293017801
 H        -5.6467735635        2.4722216657       -6.1816319791
 H        -6.7880909191        1.3720354955       -6.2042694227
 H         1.3652557712        0.5451791059       -3.7919114281
 H         1.0224551120       -0.7426360973       -2.5598682291
 H        -0.3242373868        0.0802731972       -3.2083312780
 H         2.2628759227       -2.5759517600       -4.8279665912
 H         2.5715380921       -1.0805143868       -5.5990090553
 H         1.5421926292       -2.1712938734       -6.4099743806
 H         1.9209414309       -8.2363884201       -2.1265621132
 H         0.2206361802       -7.5356734660       -2.6878679338
 H         1.0088670410       -7.1149217094       -1.2020599755
 H         4.3087763625       -5.7137339665       -2.7443566880
 H         3.8631313944       -7.2218357402       -2.2072909623
 H         3.4253262985       -6.0595235892       -1.1255601914
 H        -0.6177319930       -7.4465022114       -7.9375476792
 H         0.9418198700       -8.1660714151       -7.4941518448
 H         0.3900920469       -8.4502816200       -9.1001351427
 H         2.8044956493       -7.7528260970       -9.0791359495
 H         3.1658882075       -6.0110201597       -9.6266896385
 H         2.1575227094       -7.1421957805      -10.5434025425
 H        -3.5472012342       -3.1860788346       -9.1774197062
 H        -4.8115978698       -2.7139136338      -10.2953971959
 H        -3.5621839338       -1.5165737795       -9.9075760983
 H        -2.7374765832       -5.4364585665      -10.9664143767
 H        -2.7496402687       -4.7676872593      -12.6336565085
 H        -4.1016991434       -4.7304573228      -11.5977575615
 H        -1.6097682539       -0.5011908653      -17.4631643915
 H        -2.3195664242       -1.7095107835      -16.2594986783
 H        -1.2515023673       -0.2678097397      -15.8708789084
 H        -1.9747279114        1.8867764253      -15.4475632521
 H        -3.7943209724        2.3194271306      -15.7516654141
 H        -2.5295858979        2.3768388500      -17.0598940249
 H        -6.0233149916       -3.1450977440      -21.2093149317
 H        -7.1906680914       -2.7780494811      -22.5776182177
 H        -7.6635645496       -2.5114956414      -20.8784167835
 H        -4.8390499453       -1.9487744990      -23.1725421949
 H        -4.7722396290       -0.0098964251      -22.8677680552
 H        -5.9294911312       -0.7987378266      -23.8885576533
 H        -9.5209751600        4.1396226733      -22.4759125360
 H       -10.4655531632        3.7823482954      -24.0837867040
 H        -9.5230401363        5.3212801848      -23.7013913965
 H        -8.8590914633        4.5556806923      -26.2039475346
 H        -8.8957584649        2.6880693009      -26.0606178973
 H        -7.4061410317        3.6287699497      -26.3616252684
 H        -7.1749859545        5.3397523625      -20.2674866164
 H        -6.1169965175        5.4384133687      -18.9389871198
 H        -6.2748851303        3.9723714009      -19.6121148617
 H        -4.2340404249        7.4160129896      -21.2397869734
 H        -5.6611848362        7.5954614944      -20.2748265734
 H        -5.6878986652        7.5835197554      -21.9556411798
 Na       -4.9771771179        2.1764381915      -20.1196660336
 Na       -0.8791411073       -3.4048080956       -7.3809261315
