232

 C       -19.6380855357       -4.8883732667       -5.4588138467
 C       -19.6718754593       -5.6670722031       -4.1835061764
 O       -18.6389763022       -6.2125051779       -3.8437532630
 C       -20.8392796340       -5.8583308775       -3.1614169392
 C       -20.2478285253       -5.4443018280       -1.7609036613
 O       -19.5928066799       -6.2255073177       -1.0879221219
 C       -20.2646266561       -4.0022067274       -1.2897562534
 C       -19.0438854553       -3.7658837355       -0.4528216370
 C       -17.6960424268       -3.5659447138       -1.2312160412
 O       -17.7037138038       -3.1902918970       -2.3690083243
 C       -16.2765848856       -4.0457892112       -0.4797221719
 C       -16.2387062201       -5.5577534499       -0.7581878112
 O       -16.9995628015       -6.2483632761       -0.0406070746
 C       -15.4703965823       -6.3121677121       -1.8566205248
 C       -14.8827920577       -7.6125997757       -1.4936929476
 C       -15.1066183638       -8.6804246880       -2.5342725122
 O       -16.1575021234       -8.7683467613       -3.1195686159
 C       -13.9893702939       -9.7408648910       -2.8107109597
 C       -12.7709115475       -8.9740972571       -3.4471306062
 O       -12.9324934444       -7.9178848298       -3.9986460315
 C       -11.3711534071       -9.7199558400       -3.4418120121
 C       -10.4295790164       -9.3505301219       -4.5785977001
 C        -9.0346176218       -9.9047992722       -4.3162799050
 O        -8.8015759149      -10.5974729309       -3.3386552576
 C        -7.9704532800       -9.6150234025       -5.3813539937
 C        -7.6638809265       -8.0436236305       -5.4322946049
 O        -8.1086108186       -7.2445552183       -4.6910343732
 C        -6.6433987883       -7.5993767031       -6.4917208888
 C        -6.8270197258       -6.0560338008       -6.7124160362
 C        -7.9978141515       -5.7430233691       -7.7490472711
 O        -8.6316305409       -6.6562657765       -8.2068671830
 C        -8.2034175420       -4.2159044158       -8.3472413060
 C        -7.0809967907       -4.0333418753       -9.2353559217
 O        -5.9245558607       -4.0535845097       -8.7986508737
 C        -7.2339939457       -3.7744533382      -10.7040076507
 C        -5.8418717869       -3.6053997586      -11.3516763938
 C        -5.9090334635       -3.1373472113      -12.8363595939
 O        -6.8607089803       -2.5476939268      -13.3298208580
 C        -4.5983987356       -3.2660347857      -13.6238919045
 C        -3.5196858068       -2.2780104605      -12.9803891949
 O        -3.7392424713       -1.4955834186      -12.0886242363
 C        -1.9877473878       -2.2766383867      -13.6415977492
 C        -0.8240848238       -2.4358176476      -12.7740037478
 C         0.5436952098       -1.8952463407      -13.2721900644
 O         0.6156638624       -1.0289286345      -14.0833845494
 C         1.8803505457       -2.4729509746      -12.4818878459
 C         2.8321686146       -1.4023502575      -12.0374231406
 O         4.0856232058       -1.4541549046      -12.1891719973
 C         2.1491839566       -0.1453663308      -11.4216171753
 C         3.1448568788        0.7865819612      -10.8377490261
 C         2.8923922393        2.3065997674      -11.2168265206
 O         2.0505871302        2.7620824012      -11.9113590408
 C         3.8046936234        3.4596941410      -10.4257123591
 C         4.4517769576        4.1367873894      -11.6535332931
 O         5.5001129345        3.8135797810      -12.1096074657
 C         3.5149291717        5.2538191544      -12.4352071683
 C         4.1646922489        6.6409984688      -12.3692135437
 C         5.5898435142        6.9079803946      -13.0749694056
 O         5.7105826152        6.6216660084      -14.3093321364
 C         6.7725096070        7.5928711473      -12.3180179388
 C         7.9173902449        7.5915039508      -13.4294122214
 O         8.1467680532        8.6281430222      -14.0530935102
 C         8.5518861504        6.3277219458      -13.7011946975
 C         9.0876578010        6.2838788450      -15.1313009022
 C         8.1822119288        5.9603457313      -16.3211805407
 O         7.2023666086        5.3000460935      -16.1731519856
 C         8.5951657305        6.3476213019      -17.8062529502
 C         9.4417824348        5.0615417066      -18.2465456896
 O         9.7075357121        4.2845200431      -17.3117302553
 C         9.8515863893        4.8012388593      -19.6103576684
 C         9.5933145963        3.3792752378      -20.0913848725
 C         8.1893294426        2.8437213211      -19.8085848601
 O         7.3932810983        3.4933691010      -19.1504911017
 C         7.8856780093        1.3271398075      -20.3493785021
 C         8.0101375939        0.4338774514      -19.0938592425
 O         8.7826873963       -0.5465507942      -19.1567755022
 C         7.1083805767        0.5990941122      -17.8690652850
 C         8.0347001026        0.6617098748      -16.5553458404
 C         7.3974985718        1.3482109131      -15.2895402310
 O         7.5690326359        2.5201650596      -14.9776332158
 C         6.2004190766        0.6098279106      -14.4763844655
 C         4.6737924442        1.1494446260      -14.7667053408
 O         4.5220967003        2.3630280443      -14.6151334057
 C         3.5875429929        0.2009586398      -15.3041744517
 C         6.1804518284       -1.0130235183      -14.6743646683
 C         6.4788320540        0.7646150985      -12.9870339804
 C         6.4528539023        1.2380615991      -20.8981138312
 C         8.8204213865        1.0341538899      -21.4950854957
 C         7.5169810992        6.5022165198      -18.9154239612
 C         9.4571690901        7.6490135258      -17.7237920893
 C         6.3155443165        9.0368455114      -11.9179071832
 C         6.9356836855        6.8042536953      -11.0215846100
 C         2.8796030251        4.3555442054       -9.6945266572
 C         4.9850269231        2.9201431728       -9.4571711120
 C         1.4031268494       -3.3172985670      -11.2922487673
 C         2.4183688634       -3.4712379084      -13.7010862032
 C        -3.9392336957       -4.6372374232      -13.5080526651
 C        -4.9714251356       -2.7329231761      -15.0650281827
 C        -9.6286616308       -4.0296000395       -9.0941920625
 C        -7.9962705867       -3.0981705522       -7.2968165688
 C        -6.6057839256      -10.3689054852       -4.8793264770
 C        -8.2345652668      -10.2953489374       -6.6601332661
 C       -13.5294791108      -10.3129991341       -1.4457967275
 C       -14.5558762592      -10.9287993059       -3.6916505554
 C       -15.1029148361       -3.2101808419       -1.0466704982
 C       -16.3989690659       -3.6932248443        0.9924276316
 C       -22.0481655752       -4.9197246705       -3.4877185913
 C       -21.2691728802       -7.3567950659       -3.0953519089
 H       -19.9584000404       -3.9154531208       -5.1653874566
 H       -20.4217255475       -5.3268764465       -6.0520286608
 H       -18.5827224198       -4.8857169938       -5.7569132517
 H       -21.0707850859       -3.9873306394       -0.5807915534
 H       -20.3983858560       -3.2740035889       -2.0974519432
 H       -18.8951926278       -4.5708333507        0.2565779995
 H       -19.2008340776       -2.7866240535        0.0157139897
 H       -14.8170838154       -5.6061277493       -2.3740181031
 H       -16.2137896593       -6.5267929977       -2.6244816664
 H       -15.1856746266       -7.8790001754       -0.4986096695
 H       -13.7828129624       -7.4632380545       -1.2830341539
 H       -11.7090928901      -10.7599541242       -3.5779143384
 H       -10.9834408888       -9.5366577950       -2.4675485171
 H       -10.3512435940       -8.2037228088       -4.5900338338
 H       -10.7426570572       -9.6586213058       -5.6025728489
 H        -6.7965745543       -8.2233852828       -7.4398762600
 H        -5.6312456556       -7.6919742649       -6.0310040098
 H        -5.9733840565       -5.6324630478       -7.1275251960
 H        -6.9754235509       -5.6430744806       -5.7233405085
 H        -7.7015558820       -2.8546567579      -10.9415682530
 H        -7.7859976842       -4.5260093319      -11.1801649587
 H        -5.2600025154       -4.5073848199      -11.4511836905
 H        -5.2540353277       -2.8015300718      -10.8564809797
 H        -1.8100857695       -1.3455392743      -14.1870904235
 H        -2.0884698917       -2.9116431625      -14.5402126684
 H        -0.7834329100       -3.4890593442      -12.5246747924
 H        -0.9996984339       -1.8464641422      -11.7163623218
 H         1.4594671122       -0.5379892996      -10.7216580966
 H         1.6969148157        0.4419835254      -12.2187601587
 H         4.1445054956        0.4476201916      -11.1894401875
 H         3.1973725896        0.7557664685       -9.6994247025
 H         2.5142669548        5.2408002477      -12.0597116873
 H         3.2941597113        4.9036204980      -13.4999240357
 H         4.3483793453        6.8805937401      -11.2792498176
 H         3.4929496942        7.3553774399      -12.9929248345
 H         7.8985875593        5.4931313597      -13.4612910470
 H         9.4304127324        6.3040369906      -13.0472601993
 H         9.7054432241        5.4731283245      -15.2362505316
 H         9.6154723337        7.2418104642      -15.2916956112
 H        10.9098488912        4.9555177732      -19.7019314894
 H         9.3813242918        5.4467989480      -20.3226019140
 H        10.2638875577        2.7110090528      -19.5742159007
 H         9.9625836173        3.4162367085      -21.1191927195
 H         6.3787597076       -0.1942699262      -17.7323520946
 H         6.4455882261        1.4263995059      -17.7314533521
 H         8.8660359208        1.3123951017      -16.8637701801
 H         8.3138674891       -0.3999327019      -16.2313539911
 H         3.7909051868       -0.7199164018      -15.9252711247
 H         2.7353848331        0.8492876348      -15.6289406894
 H         3.2483819672       -0.1660603283      -14.3428659118
 H         5.4665822595       -1.3032799329      -13.9691417140
 H         7.1687392649       -1.3674635222      -14.3697100040
 H         5.8090106857       -1.3423100775      -15.6508399594
 H         5.7928321829        0.2014186257      -12.3582235173
 H         6.3528706133        1.8161208197      -12.5745893227
 H         7.5147577248        0.7175894972      -12.7781727471
 H         6.2792014079        0.2488712566      -21.1986685267
 H         6.3774162775        1.9482312295      -21.7022774041
 H         5.7107558390        1.6711259573      -20.2585784116
 H         8.6440588333        0.0926432335      -22.0404486820
 H         9.8432506709        1.0709069370      -21.0397150654
 H         8.6672923957        1.7440277933      -22.3627670304
 H         6.9531825241        7.4134648353      -18.7243592978
 H         6.8017855120        5.6946271716      -18.8732427273
 H         7.9690105930        6.3985724417      -19.8937074812
 H        10.3780123747        7.4427713272      -17.1148968712
 H         8.9293103046        8.4697647436      -17.2931891942
 H         9.7703274751        8.0724784243      -18.6320470034
 H         7.0111194382        9.4142176158      -11.2061952335
 H         5.3887007028        9.2392099277      -11.4628606138
 H         6.2347827796        9.6814937765      -12.8115515184
 H         6.8631332868        7.4571329232      -10.2249515405
 H         7.8929405063        6.2289575986      -10.9497135118
 H         6.1420740350        6.1415960639      -10.8185418531
 H         2.1545108368        3.9149147747       -8.9661866557
 H         2.1635627905        4.7537413989      -10.3613665917
 H         3.2991451442        5.2041294275       -9.2857654859
 H         5.1721904069        3.7243244811       -8.7336633109
 H         5.8801024036        2.8419965441      -10.0641557356
 H         4.6910343629        2.0280791855       -8.8890332231
 H         0.7457298659       -2.7478358093      -10.6685206493
 H         2.2736146080       -3.6177752984      -10.6606515441
 H         0.7909132235       -4.2187180805      -11.4331626933
 H         1.5958467798       -4.0840549967      -14.1691323411
 H         3.2379448987       -4.1145436730      -13.2451347142
 H         2.9351260373       -2.8617730637      -14.4515971490
 H        -3.1402643650       -4.7636705257      -14.2311082380
 H        -4.6244807702       -5.4641286084      -13.7583164526
 H        -3.4667931875       -4.7822098943      -12.5531604374
 H        -4.2003371447       -3.1110650063      -15.7454937470
 H        -5.1606370238       -1.7162741632      -15.2408751083
 H        -5.8506290338       -3.2511183418      -15.4017898862
 H       -10.1722394789       -3.0270491261       -8.8279314409
 H       -10.2591008949       -4.8658667872       -8.6568216204
 H        -9.4239322573       -4.1312305040      -10.1321783186
 H        -8.9820454386       -2.8367134289       -6.8476388550
 H        -7.5427058410       -2.2795011873       -7.8380470777
 H        -7.3276128706       -3.4986701696       -6.4810460683
 H        -6.8622469524      -11.3244728192       -4.4603743415
 H        -6.0480288171       -9.7866339501       -4.1687061706
 H        -5.9013719650      -10.6797519131       -5.6864978504
 H        -8.5573507471      -11.3360824773       -6.3397550158
 H        -7.3880640473      -10.3513226499       -7.3557844231
 H        -9.1586782169       -9.9795563996       -7.1145977580
 H       -12.6407430381       -9.7774756310       -1.0016553703
 H       -13.4654414941      -11.3544278408       -1.4937696024
 H       -14.3314243913      -10.0819940171       -0.6868463818
 H       -14.6203960593      -10.5768435630       -4.6417987986
 H       -15.4490924389      -11.1978899065       -3.2095617697
 H       -13.8419822319      -11.6938572236       -3.6496710372
 H       -15.2520165160       -2.9001497583       -2.0645684329
 H       -14.2093826866       -3.8290780314       -1.1698614981
 H       -14.8826971558       -2.3331104977       -0.4051443519
 H       -17.0424398580       -4.3858742896        1.5687130763
 H       -16.8580114725       -2.6336054829        1.0840454643
 H       -15.3939278513       -3.7376272471        1.4093227209
 H       -21.8947522783       -3.9446765567       -3.9337083360
 H       -22.5996194681       -4.6703498345       -2.5480097762
 H       -22.8726739451       -5.4311150695       -3.9974420932
 H       -22.0857120598       -7.5559148836       -2.3708831014
 H       -20.4533592584       -8.0378397008       -2.7734297933
 H       -21.5927147910       -7.6426515331       -4.0811428570
 Na      -17.8811597923       -7.4393260722       -1.9657197963
 Na        6.1369081733        4.1683609780      -14.4904429903
