232

 C        -2.9009147013        6.2317519911      -19.2814675296
 C        -3.9282171071        5.1676223937      -19.7522149673
 O        -3.7666053373        4.0074838189      -19.3689724827
 C        -5.0582015317        5.4102526937      -20.7926253786
 C        -4.9740154559        4.5793052434      -22.0462880230
 O        -4.9828120614        3.3528315241      -21.9064189568
 C        -4.9114221641        5.0311040295      -23.5194390650
 C        -5.8950224395        4.1903926951      -24.3547682637
 C        -7.4352397407        4.4458133424      -24.1203329597
 O        -7.7902939313        5.1812121985      -23.2275090962
 C        -8.4726031715        3.4549227254      -24.7734161406
 C        -8.1136260222        2.0554658172      -24.1017505618
 O        -6.9965606826        1.5886103732      -24.1691036357
 C        -9.3394636133        1.4312788503      -23.3077552663
 C        -8.8048285624        0.0859319919      -22.6722128943
 C        -7.5447676476        0.3216781912      -21.7409351427
 O        -7.2958609593        1.3448996587      -21.0662549606
 C        -6.5446330577       -0.8693082118      -21.5732224915
 C        -5.4974864510       -0.6058470206      -20.3561506460
 O        -4.4142425453       -0.1190323166      -20.5568416596
 C        -5.9433852743       -1.0487900699      -18.9734345983
 C        -4.8774599583       -0.9803398164      -17.9024069970
 C        -4.2938579694        0.4639248133      -17.4922371821
 O        -4.4863374305        1.5302741018      -18.1079019039
 C        -3.2293119565        0.4156766847      -16.3905568023
 C        -3.9571969723        0.1719249649      -14.9973616844
 O        -5.1439657029       -0.1809330390      -15.0808797135
 C        -3.1734471736        0.2988302610      -13.6946462469
 C        -3.5806515534       -0.6702196493      -12.5424923937
 C        -2.4782038524       -1.7119437221      -12.3691107790
 O        -1.5090779382       -1.8185402404      -13.0885406912
 C        -2.6356775176       -2.8502484724      -11.2596924796
 C        -1.2769001815       -2.7681872088      -10.5515981434
 O        -1.1424693838       -1.9861674657       -9.6711295646
 C        -0.0745532850       -3.5870183200      -11.0648674950
 C         0.7694304959       -4.1406765065       -9.8989185380
 C         0.3687244452       -5.5333936198       -9.3605647434
 O        -0.8136547121       -5.7966931932       -9.5082903767
 C         1.4361978593       -6.4798269006       -8.7119517311
 C         2.1348844712       -5.6337137765       -7.5288983018
 O         1.6238809297       -4.5812214911       -7.1231925301
 C         3.2353750217       -6.3748154002       -6.7762613231
 C         3.3291142575       -6.1766892081       -5.2650965782
 C         2.0751639992       -6.6864879662       -4.5203756254
 O         1.2764731099       -7.4387854227       -5.1100912897
 C         2.0196363244       -6.3221425468       -3.0562477379
 C         1.4818228273       -4.8429431438       -2.9425336994
 O         2.2396415742       -3.9182209457       -3.1614186956
 C         0.0346749611       -4.5443533787       -2.6865580741
 C        -0.2514500840       -3.0392585200       -2.8697335856
 C        -0.1942226146       -2.6989498753       -4.3910571242
 O        -0.5578295006       -3.4235768408       -5.2722997001
 C         0.4239639284       -1.3539384468       -4.9520607250
 C        -0.5887488311       -0.6949454025       -6.0510909807
 O        -0.9255437046       -1.2744565165       -7.0773244124
 C        -0.8847571787        0.7975430577       -5.7880425516
 C        -2.3961674740        1.0263126036       -6.1022436493
 C        -3.3072466565        0.4364417010       -4.9889885184
 O        -2.9519838920        0.1273650127       -3.8658780327
 C        -4.7913196927        0.4104345650       -5.4265447501
 C        -5.0842408354       -1.0749871448       -5.9130083918
 O        -5.8083431830       -1.3616921004       -6.8476718237
 C        -4.3275981851       -2.1948348968       -5.1934038617
 C        -4.7910262157       -3.5470093107       -5.6481375933
 C        -3.6950925452       -4.5265926407       -6.1226554633
 O        -2.9028040275       -4.1018066944       -6.8891706194
 C        -3.5784903458       -5.9938407451       -5.5327907617
 C        -3.3916869354       -5.8053422350       -4.0080224920
 O        -3.2208284253       -4.7038151576       -3.5516011387
 C        -3.3451932968       -6.9850149248       -3.0670764587
 C        -3.7884710844       -6.8205108931       -1.5235506765
 C        -2.8356895991       -5.8998412372       -0.6510519707
 O        -1.6316193359       -5.9346259706       -0.7113289821
 C        -3.5576643594       -5.0295644722        0.3816039685
 C        -4.0653838765       -3.6824824827       -0.3484282401
 O        -3.2952739726       -3.2564061552       -1.2395613379
 C        -5.3545391263       -2.9329037417        0.0715070610
 C        -5.1929157239       -1.3733664571        0.1753231276
 C        -4.8072347734       -1.1623211030        1.6919405272
 O        -3.9730147551       -1.8686706938        2.2033675729
 C        -5.4184777863        0.1079346990        2.3551230905
 C        -6.8767303899       -0.4908231387        2.8460975840
 O        -7.5709584068       -1.1146481171        2.1604949120
 C        -7.3071328573       -0.2064342892        4.2809437253
 C        -4.6961074673        0.5647768644        3.5802776285
 C        -5.7542478555        1.1879863475        1.3391439031
 C        -4.7623808370       -5.8229551064        1.0256384912
 C        -2.4847933750       -4.7085445529        1.4991364610
 C        -4.9781295674       -6.6894776325       -5.7863915071
 C        -2.3312101796       -6.7158138779       -6.1452361275
 C        -5.8324623250        0.5898126551       -4.2218208224
 C        -5.2826169432        1.3537848412       -6.4843546270
 C         0.6124816000       -0.3683051426       -3.6794686265
 C         1.7033904481       -1.7425373424       -5.7674696113
 C         1.1756894859       -7.4164745809       -2.3858253703
 C         3.3927878794       -6.3206248673       -2.3859075284
 C         0.7791612896       -7.6488410950       -7.9520039520
 C         2.4437569613       -7.0465967709       -9.7393864496
 C        -3.7754649868       -2.6284892048      -10.2831386491
 C        -2.8705874300       -4.2332452796      -11.9697091569
 C        -2.2649914346       -0.8544941393      -16.5829200194
 C        -2.5122182142        1.7712910489      -16.4308207916
 C        -7.1234318324       -2.3353039194      -21.4575868328
 C        -5.6364085020       -0.8138025343      -22.8728442482
 C        -9.8440653807        4.1464932999      -24.4995779059
 C        -8.0410537842        3.2180753891      -26.2659070197
 C        -6.5375367634        4.9840280771      -20.1685955736
 C        -5.0297839637        6.8926492509      -21.1571719086
 H        -3.1586502741        6.8734075420      -18.4981601527
 H        -2.7966674927        6.9261332005      -20.1533966809
 H        -1.9289930296        5.7648471200      -18.9602645915
 H        -3.8395801291        5.0201554070      -23.7700893084
 H        -5.2804971698        6.0877200523      -23.6731710558
 H        -5.6210907324        3.1296006702      -24.2669710262
 H        -5.7062131630        4.3266643508      -25.3712271621
 H       -10.1047763320        1.2338016676      -24.0476799383
 H        -9.5917225880        2.0233649246      -22.4377702720
 H        -8.7527904884       -0.5644915570      -23.5121289151
 H        -9.6396922559       -0.2826543884      -22.0725227861
 H        -6.3717396643       -2.1019208587      -18.8983150744
 H        -6.7308018153       -0.3079498099      -18.8295397747
 H        -3.9747147161       -1.4361327167      -18.4245777049
 H        -4.9780265199       -1.5751248639      -17.0550685156
 H        -3.2197283292        1.2927666117      -13.3755614138
 H        -2.0802951554        0.1727873467      -13.7667474969
 H        -4.5794225845       -1.0988155317      -12.7535461848
 H        -3.7321537181       -0.2438535589      -11.5816791819
 H         0.4753609730       -2.7894290161      -11.6089920743
 H        -0.2476163030       -4.4324782169      -11.7558931391
 H         0.6767499830       -3.4000149751       -9.0094658035
 H         1.7742219745       -3.9814104277      -10.1842257085
 H         4.1446991715       -6.0649101718       -7.1747892308
 H         3.1472471284       -7.4849532438       -7.1163569399
 H         3.4745043647       -5.1345497960       -4.9383765829
 H         4.2906374024       -6.6737147109       -4.9479197257
 H        -0.2903174081       -4.8655699179       -1.6824258661
 H        -0.5850062814       -5.1062839325       -3.3496803160
 H         0.4596365986       -2.4683945600       -2.2686900860
 H        -1.2424968334       -2.8020898089       -2.4664574142
 H        -0.3297211574        1.4362162843       -6.4664746856
 H        -0.7838101274        1.1780435038       -4.7167559341
 H        -2.7957481431        0.6285718679       -7.0571525689
 H        -2.5259500613        2.1388851518       -5.9406199649
 H        -4.5617502865       -1.9575399771       -4.1628060534
 H        -3.3248867520       -2.1473119600       -5.4613761375
 H        -5.4217722757       -3.3482851353       -6.4570154839
 H        -5.3977927978       -3.8230683100       -4.8026457230
 H        -2.2645393302       -7.1944595820       -3.0171691857
 H        -3.7825038705       -7.8670417663       -3.4590662998
 H        -3.7151882461       -7.7926888467       -0.9724332347
 H        -4.8546406739       -6.4590948164       -1.5018664115
 H        -5.7540012286       -3.2996919223        0.9817485796
 H        -6.0899846407       -3.0476102304       -0.7248511043
 H        -6.1290855256       -0.9492306463       -0.0272568796
 H        -4.4664393773       -0.9226759133       -0.4725690899
 H        -7.4664583379        0.8650245179        4.4464547793
 H        -6.7186399287       -0.6727394189        5.1321655891
 H        -8.3099142918       -0.6960143530        4.3459960799
 H        -5.3556090569        1.1583135648        4.2468047100
 H        -3.7862751556        1.0982048237        3.2207574216
 H        -4.4115635909       -0.2171396727        4.3005999534
 H        -4.9336811637        1.2346246861        0.5987434946
 H        -5.8019003029        2.1911128646        1.7281062451
 H        -6.6818813200        0.8904472930        0.8851306475
 H        -4.3413760737       -6.7443966600        1.4306588034
 H        -5.5698969566       -6.0154654476        0.2083380365
 H        -5.1975417589       -5.2758601890        1.8246915427
 H        -2.5294603242       -5.5273332416        2.1992562568
 H        -2.6519300920       -3.8044338006        1.9834295826
 H        -1.5754206567       -4.6870586483        0.9191672626
 H        -5.0445191763       -6.8478860423       -6.8783769847
 H        -5.7565656307       -5.9780659103       -5.4341624912
 H        -5.0964017541       -7.5960857818       -5.2594054304
 H        -2.1699021616       -6.4788117478       -7.1646904959
 H        -2.3275189269       -7.8383734980       -6.0815239829
 H        -1.3686865948       -6.4944082668       -5.6456301335
 H        -5.6534366919       -0.2676078734       -3.5662069994
 H        -6.7808899819        0.7256556647       -4.6653791335
 H        -5.5287640062        1.5428698582       -3.7379722650
 H        -4.6046776858        1.5668060712       -7.2806747947
 H        -5.5881557916        2.3237755180       -6.1464466527
 H        -6.1235468895        1.0316948228       -6.9578964560
 H         1.2087403346        0.5248029354       -3.9165024907
 H         1.1614194977       -0.9056826655       -2.9059668743
 H        -0.2924021898       -0.2136957303       -3.1644511621
 H         2.4086661379       -2.0559619648       -5.0087299796
 H         2.1550133315       -0.8905293826       -6.3652321795
 H         1.5485824808       -2.4709880763       -6.5011539340
 H         1.6231111325       -8.4074779173       -2.3017951554
 H         0.2254536670       -7.6003260402       -2.8813284100
 H         0.9724570755       -7.0899048505       -1.3892586555
 H         4.0126057135       -5.5059850077       -2.7206018395
 H         4.0004932973       -7.2276482593       -2.4456396634
 H         3.2792673943       -6.2986236467       -1.3138011319
 H         0.3138462971       -7.2615743807       -7.0172216798
 H         1.4956928498       -8.4493972354       -7.6121816267
 H        -0.0093178764       -8.0664983204       -8.5957027701
 H         3.1949368831       -7.6669736622       -9.2233192937
 H         3.0824870343       -6.2774624175      -10.2939736498
 H         1.8815693209       -7.5685040189      -10.4767996922
 H        -3.5594771463       -3.2519701116       -9.4577882319
 H        -4.6965710505       -2.8900653610      -10.7247122943
 H        -3.9154207884       -1.5632229084       -9.9189487819
 H        -2.8553447911       -5.0628389887      -11.2568660845
 H        -2.2018253351       -4.3319756887      -12.7789295076
 H        -3.8999556174       -4.2183249157      -12.2288790241
 H        -1.6167577741       -0.6183887164      -17.4653153800
 H        -2.8241609841       -1.8029027624      -16.5643199310
 H        -1.5724447806       -0.9008296500      -15.7862465108
 H        -1.8178183337        1.7841288116      -15.5667319900
 H        -3.2509791351        2.4935060052      -16.4618603477
 H        -1.9030647167        2.0800082456      -17.3013628239
 H        -6.2875907700       -2.9855579869      -21.3149616527
 H        -7.7729242103       -2.5731584999      -22.3752943252
 H        -7.6421510790       -2.4504103253      -20.5292612070
 H        -4.8117834104       -1.6286939494      -22.7551056224
 H        -5.1095834437        0.0834156445      -22.7358404215
 H        -6.1163747002       -1.0745633588      -23.8606447651
 H        -9.7406933239        4.4330907276      -23.4705405645
 H       -10.8233258645        3.6312901589      -24.7505836480
 H        -9.8099338516        5.0185101639      -25.1413221886
 H        -7.6613618634        4.1388238441      -26.7107439912
 H        -8.9878193865        3.0020071194      -26.7559722647
 H        -7.3352200474        2.4038808347      -26.4040791718
 H        -7.2198128081        5.7625462546      -20.6320776389
 H        -6.6560552761        4.7847070116      -19.0957240926
 H        -6.9504151470        4.0061083616      -20.5281137629
 H        -4.1460414166        7.2455321830      -21.6267382590
 H        -5.2107233103        7.5761537301      -20.3316811360
 H        -5.7207982321        7.1893712904      -21.9601692017
 Na       -5.5080423357        2.2330052459      -20.0014014756
 Na       -0.7641820351       -3.6104174318       -7.5521445389
