232

 C        -3.2141266741        5.9002609346      -19.4895845115
 C        -4.3429431799        5.0449451013      -19.7922271469
 O        -4.4088618891        3.9253065972      -19.2358522697
 C        -5.3490288573        5.5127681877      -20.8977706027
 C        -5.1687259224        4.6180160197      -22.2257358334
 O        -4.9384684890        3.4358955090      -22.0467935006
 C        -5.0902932644        5.2706484790      -23.6638356027
 C        -5.9429342336        4.3475157276      -24.5721095039
 C        -7.4432509667        4.3388358732      -24.2826191988
 O        -7.8372269583        5.0041616587      -23.3553814372
 C        -8.3801182867        3.3010893950      -25.0796173587
 C        -8.2824566220        1.9431659469      -24.2979441570
 O        -7.2645811196        1.2918793958      -24.2447203956
 C        -9.3974584685        1.5405503764      -23.4266232126
 C        -8.8945079468        0.2524001423      -22.5420517081
 C        -7.6915796792        0.4025645463      -21.6193749516
 O        -7.5490690309        1.4663326361      -21.0413303182
 C        -6.6198533853       -0.7354331912      -21.5306623800
 C        -5.6717491127       -0.4737318343      -20.3026299020
 O        -4.5346389019       -0.1050802624      -20.6256110633
 C        -6.1438599505       -0.6439613932      -18.8803256107
 C        -4.9680370058       -0.9769993590      -17.8951989051
 C        -4.2274028407        0.3447490640      -17.4158354823
 O        -4.6751217102        1.3998243024      -17.8484025933
 C        -3.0956583725        0.3762053246      -16.3114323567
 C        -3.8266584675        0.3714481547      -14.9604523302
 O        -5.0041332795        0.0184551099      -15.0886641741
 C        -3.1509889224        0.7036885127      -13.6630599838
 C        -3.4710733268       -0.2956374552      -12.5497954130
 C        -2.3083578897       -1.2815694327      -12.3697301566
 O        -1.3515668481       -1.2084822986      -13.0837102833
 C        -2.5033210259       -2.5564017980      -11.4779243145
 C        -1.2264748242       -2.9166807886      -10.5984304726
 O        -1.2401620053       -2.5510391270       -9.4344986999
 C        -0.0025118982       -3.6398100699      -11.2625792635
 C         1.1193396648       -4.1966495103      -10.2982187310
 C         0.4884699399       -5.4443559608       -9.4678033684
 O        -0.7160048310       -5.5422889176       -9.3720713450
 C         1.4552622586       -6.5372767910       -8.8188516445
 C         2.1327361207       -5.8101911817       -7.5324630877
 O         1.7196812242       -4.7387840825       -7.1669082936
 C         3.3571417036       -6.4731452026       -6.7396578376
 C         3.4313637201       -6.2043738445       -5.2640656446
 C         2.0923417229       -6.6509342506       -4.5902679356
 O         1.2058888843       -7.1554928866       -5.2565529431
 C         2.0390149607       -6.4059988755       -2.9939191549
 C         1.5989071903       -4.8521848742       -3.0748146923
 O         2.3465602034       -3.9391022181       -3.3928081942
 C         0.1572498379       -4.6369123982       -2.7504984246
 C        -0.2338567373       -3.1555422357       -2.9073871445
 C         0.0273646324       -2.7082449912       -4.3939428697
 O        -0.2534281075       -3.5207393183       -5.2637338339
 C         0.5569297979       -1.2697236252       -4.8654716895
 C        -0.5104619950       -0.6067245967       -5.8035844746
 O        -1.2746643819       -1.2287029333       -6.5098947366
 C        -0.7844239215        0.8991552029       -5.8007434091
 C        -2.2317963128        1.2051472657       -6.1251380643
 C        -3.2276896023        0.4940681091       -5.1418076538
 O        -2.7326326140        0.0533891800       -4.1278025116
 C        -4.8506239019        0.3757891928       -5.4451415131
 C        -5.0395433588       -1.1130108971       -5.8822069268
 O        -6.0249935876       -1.3575830128       -6.5773545041
 C        -4.0323818719       -2.2084863624       -5.4261721736
 C        -4.6366419912       -3.6599171034       -5.6177048404
 C        -3.5787993034       -4.6052104680       -6.1357331807
 O        -2.8575696113       -4.4699873169       -7.0611565884
 C        -3.4904635220       -6.0154520391       -5.3929659971
 C        -3.2505127695       -5.7771246019       -3.8775743639
 O        -3.0245564436       -4.6632467149       -3.4285531970
 C        -3.1302323856       -6.9795631790       -2.9444815056
 C        -3.8743466903       -6.6209080332       -1.5641493128
 C        -2.9217854367       -6.0260822925       -0.5230734420
 O        -1.7537481961       -6.2848184447       -0.6562363913
 C        -3.6149902406       -5.2140713750        0.5824156218
 C        -4.0627202658       -3.8922562314       -0.1278131588
 O        -3.3567243991       -3.3658827082       -1.0043520959
 C        -5.3884649453       -3.2097364564        0.3067500313
 C        -5.3246802352       -1.7260626432        0.3415708510
 C        -4.7221367643       -1.0960948339        1.6975983646
 O        -3.6825461272       -1.4576361428        2.2007560943
 C        -5.6379900598       -0.0425814898        2.5382814916
 C        -6.9100638728       -0.7326874164        3.1896794680
 O        -7.5036965331       -1.5611060479        2.5964601260
 C        -7.5085468707       -0.0249135451        4.4250365942
 C        -4.6751310128        0.5209092841        3.5811332422
 C        -6.1550791845        1.1248866246        1.6553322414
 C        -4.8928911965       -6.0079871218        1.1690314295
 C        -2.5210659704       -4.7322567302        1.6037501603
 C        -4.9100247692       -6.6745344598       -5.5113924842
 C        -2.3369010150       -6.8966827549       -5.9415507860
 C        -5.5644116075        0.7453862182       -4.0830981166
 C        -5.3868324722        1.3117696600       -6.6020890769
 C         1.0442914860       -0.4158954160       -3.6440508029
 C         1.7850255993       -1.7058340491       -5.7962100310
 C         1.0654567403       -7.3584216225       -2.3707727025
 C         3.3433950832       -6.5391115000       -2.1433916001
 C         0.5680317656       -7.7647250624       -8.3366135800
 C         2.5427484119       -6.9515419932       -9.8122671914
 C        -3.7306866569       -2.3902589493      -10.4875333982
 C        -2.7950843292       -3.7824561787      -12.4103492227
 C        -2.2103811838       -0.8597121516      -16.4430479420
 C        -2.2648639312        1.6487314650      -16.4813238206
 C        -7.4311353333       -1.9881974529      -21.3137053499
 C        -5.8368250432       -0.7705506829      -22.8878587109
 C        -9.9328175492        3.7810183999      -25.2996292495
 C        -7.7992816398        3.1180396228      -26.4617990898
 C        -6.7714440155        5.2967672519      -20.1967225635
 C        -4.9671143557        6.9740540788      -21.3768112633
 H        -3.4054635721        6.8958543002      -19.2552699567
 H        -2.6427213481        5.9992197564      -20.4094190566
 H        -2.6579592581        5.4177034448      -18.6513620981
 H        -4.0423454244        5.2105820110      -23.9855822902
 H        -5.4623557917        6.3310586128      -23.7326862724
 H        -5.3447922627        3.3450216748      -24.5588621944
 H        -5.6921708115        4.6560032412      -25.6395478758
 H       -10.2165607085        1.3298040937      -24.1111848750
 H        -9.5470483685        2.3418936721      -22.7167655899
 H        -8.9341723633       -0.4827425588      -23.3123814011
 H        -9.7290056249        0.0518237101      -21.8644551854
 H        -6.7932262528       -1.5001138861      -18.9023569163
 H        -6.6295016606        0.2204815739      -18.5028448422
 H        -4.1267471582       -1.4800586779      -18.3740763485
 H        -5.2516389218       -1.5972665958      -17.0837109073
 H        -3.5093320373        1.6945198434      -13.2904354077
 H        -2.0352622079        0.8081630315      -13.6942294076
 H        -4.3739087745       -0.8950871195      -12.8171236427
 H        -3.7590615247        0.1993139208      -11.5996137235
 H         0.4171553276       -2.9628249603      -12.0056312284
 H        -0.4466134697       -4.5227628812      -11.7208702597
 H         1.4052809607       -3.3561283643       -9.7183225347
 H         1.9388618986       -4.3768446450      -10.8918202643
 H         4.2650451432       -6.1830320736       -7.3485093486
 H         3.2630835723       -7.6639312329       -6.9539453439
 H         3.5427528231       -5.1351246572       -5.1346169055
 H         4.2540965405       -6.6078269198       -4.7653692946
 H         0.0472814997       -4.8398831400       -1.6830549630
 H        -0.5357171992       -5.2726200805       -3.2310320726
 H         0.3167725392       -2.5543111192       -2.1488760263
 H        -1.2754231883       -3.0351037185       -2.6027279021
 H        -0.2786534970        1.4451373628       -6.5588282952
 H        -0.5705191181        1.2821182605       -4.8222771509
 H        -2.4635726319        0.8727072657       -7.0650861647
 H        -2.4752251501        2.3185166217       -6.0425145482
 H        -3.8519274373       -2.0681756884       -4.3465847620
 H        -3.1230396689       -2.0995596268       -6.0728786965
 H        -5.4785699669       -3.5735533117       -6.4012359719
 H        -5.1637707046       -3.8777634707       -4.6327893171
 H        -2.0789279330       -7.1678024791       -2.6377337209
 H        -3.4996187940       -7.9074481272       -3.4105201861
 H        -4.3408162300       -7.4347639313       -1.1150733865
 H        -4.6552794263       -5.8742992430       -1.6904975137
 H        -5.8045907407       -3.5803441663        1.2137694147
 H        -6.0805322871       -3.3340230110       -0.5588147161
 H        -6.3409369426       -1.3005443889        0.0950607450
 H        -4.6181443148       -1.3669794963       -0.4551875070
 H        -7.8657024051        0.8820036325        4.0444278368
 H        -6.7479187529        0.2653490891        5.1842225437
 H        -8.2399210916       -0.5759786611        4.9493493705
 H        -5.1540131016        1.3598075875        4.0598197950
 H        -3.6604149381        0.6541992759        3.2711968589
 H        -4.5065889035       -0.2507013386        4.3743104785
 H        -5.5094054951        1.9646562770        1.3618614594
 H        -6.9296597175        1.5539438606        2.3107533914
 H        -6.6234765620        0.5949374857        0.7973976755
 H        -4.5981701689       -7.0032648426        1.4181463982
 H        -5.7345376994       -6.0150613272        0.4229426708
 H        -5.2551393729       -5.5015724429        1.9895075569
 H        -1.6000345433       -5.3374434544        1.5502757260
 H        -3.0647550851       -4.8192245175        2.5602049441
 H        -2.3109217652       -3.6276916000        1.4320590413
 H        -5.2960011826       -6.5422780089       -6.5020545798
 H        -5.5824866633       -6.1492219047       -4.8327509376
 H        -4.8316656950       -7.7388098473       -5.2143383405
 H        -2.4375332565       -6.9454410947       -7.0051397721
 H        -2.2985068745       -7.9745905462       -5.5682040083
 H        -1.3530338268       -6.4855423063       -5.7442773769
 H        -4.8063138016        0.6513811564       -3.2821408439
 H        -6.3848796603        0.0329924345       -4.1998609467
 H        -6.0129120614        1.7246723726       -4.0034240116
 H        -5.3895750904        0.9479363702       -7.6956969708
 H        -4.7756713188        2.2224235933       -6.7625303918
 H        -6.3884980786        1.7077046622       -6.4036700019
 H         1.1744441501        0.6125827057       -4.0337650263
 H         1.9769976277       -0.7083888385       -3.1585304514
 H         0.2094176529       -0.3459856712       -2.9182077240
 H         2.4586657241       -2.4180741353       -5.2840286755
 H         2.3112478206       -0.7756279695       -6.1548268423
 H         1.4778880911       -2.1708791021       -6.7167168397
 H         1.4751803179       -8.3945752127       -2.5254812605
 H         0.1217151672       -7.5223390555       -2.9150508969
 H         0.8532745113       -7.1814664429       -1.3723982193
 H         4.0879444180       -5.6983049375       -2.2511698275
 H         3.8777368638       -7.4427810859       -2.2459215306
 H         3.1454454587       -6.4274601964       -1.0585295043
 H        -0.2254902633       -7.4290148755       -7.7404017172
 H         1.1224308815       -8.4417071497       -7.7485213238
 H         0.1397885587       -8.2095665784       -9.2271606731
 H         3.3627189982       -7.5658750154       -9.3415532036
 H         3.1707975656       -6.1352373784      -10.3039429468
 H         2.1346248372       -7.5511740300      -10.5918482668
 H        -3.5452175748       -2.5609181664       -9.4424717781
 H        -4.5135830837       -3.0077849055      -10.8863640460
 H        -4.1126445315       -1.3149050402      -10.5401805988
 H        -2.8487616955       -4.6420515171      -11.6436066385
 H        -1.8943415313       -3.9144234785      -13.0586201890
 H        -3.7126426740       -3.6405463913      -12.9764166785
 H        -1.7747704293       -0.6738208497      -17.4546536111
 H        -2.7267168976       -1.8088331940      -16.3798472582
 H        -1.4413023609       -0.9231904830      -15.7130007288
 H        -1.2411169308        1.4443362224      -16.1358328857
 H        -2.7029578228        2.4382205502      -15.9311188177
 H        -2.2563413543        2.1014507428      -17.4679268182
 H        -6.8462721632       -2.8434779395      -20.9072732957
 H        -7.7939641049       -2.1773498228      -22.3179347844
 H        -8.2465300095       -1.8150683856      -20.6439300544
 H        -5.0324014420       -1.5382370516      -22.7937833794
 H        -5.2532496506        0.0688609189      -23.0037470986
 H        -6.5248519809       -1.0319956203      -23.6519201704
 H       -10.4522566856        3.7117087123      -24.3435489855
 H       -10.4448573077        3.1174981352      -25.9763310527
 H        -9.9286714084        4.7123415179      -25.7814563069
 H        -7.9730738475        3.9592940684      -27.0787662220
 H        -8.3045873529        2.3263941190      -27.0096472101
 H        -6.7182346875        2.8836809018      -26.2574539068
 H        -7.5781858375        5.3116543998      -20.9410551872
 H        -6.9484039089        6.1265802031      -19.5630240028
 H        -6.8524612075        4.4165409151      -19.5358220146
 H        -3.9936095068        7.1360971980      -21.8145336986
 H        -4.8361238493        7.6833503027      -20.5753294980
 H        -5.6950108076        7.5067908885      -22.0560288781
 Na       -5.3470150562        1.9931594189      -20.0722716868
 Na       -0.6004430913       -3.4920595169       -7.4482804271
