232

 C        -3.1468704642        5.9248772903      -19.5304690104
 C        -4.3424148924        5.0603954136      -19.8336397861
 O        -4.5922412008        4.0097263446      -19.2333267613
 C        -5.4006787592        5.5601749352      -20.9238011491
 C        -5.2515424698        4.6224969700      -22.1992685279
 O        -5.0008265982        3.4103318984      -22.1631950522
 C        -5.3143075241        5.2589593196      -23.5371210261
 C        -6.0116611745        4.3675944685      -24.6498009089
 C        -7.4642883311        4.3123838751      -24.3668498753
 O        -8.0442049310        4.8778307643      -23.4273794906
 C        -8.1934860742        3.2710701088      -25.1679818684
 C        -8.1759637876        1.9616817216      -24.2602847672
 O        -7.2330411620        1.2665189169      -24.5021148605
 C        -9.3720432527        1.6233249683      -23.2382883165
 C        -9.0036371055        0.3604080357      -22.4801669181
 C        -7.7266568580        0.5715479212      -21.6947752261
 O        -7.4951930782        1.5569955498      -20.9592795752
 C        -6.8144770523       -0.7697937173      -21.6023629749
 C        -5.6978315739       -0.5219721214      -20.3510103346
 O        -4.6137185254       -0.0781594687      -20.5925574998
 C        -6.1049044084       -0.7916318124      -18.9236402821
 C        -4.9920288390       -0.9262872506      -17.9087417070
 C        -4.2341498164        0.4498209486      -17.4079525681
 O        -4.6303634700        1.5259081372      -17.8400322515
 C        -3.0765340631        0.3126069450      -16.4213667956
 C        -3.8099358801        0.2900416520      -14.8896602346
 O        -4.9937110190        0.0457836407      -14.8341975899
 C        -3.1483857453        0.8138951627      -13.6422115282
 C        -3.4014343102       -0.2363902832      -12.4821325040
 C        -2.2381810415       -1.2331710021      -12.4416420509
 O        -1.1994631815       -1.0325003652      -13.0636409776
 C        -2.4677329302       -2.5201918351      -11.4961727687
 C        -1.1979192272       -2.9233494007      -10.6061455374
 O        -1.2010337286       -2.7871661102       -9.4385843503
 C        -0.0029107188       -3.6417083605      -11.3372822971
 C         0.9756218508       -4.2809789756      -10.3796643548
 C         0.4505711915       -5.3780314797       -9.5546798939
 O        -0.7527551879       -5.3689444832       -9.2852046369
 C         1.4892769009       -6.4073103833       -8.8673114940
 C         2.0211070263       -5.8087598091       -7.5914252038
 O         1.6412075352       -4.6838668350       -7.2107014518
 C         3.2243169856       -6.4647201606       -6.8228340979
 C         3.4382998958       -6.2595405332       -5.3526521563
 C         2.2022717373       -6.7088398310       -4.5049691116
 O         1.2048335297       -7.0936810408       -5.1366585495
 C         2.0564902555       -6.4107048480       -3.0548375847
 C         1.6284578498       -4.8277678293       -3.0452435476
 O         2.4319038085       -4.0006471751       -3.4379605654
 C         0.1997971879       -4.5127569539       -2.6762650237
 C        -0.2001169940       -3.0107415336       -2.9280766966
 C         0.0690881662       -2.6559142666       -4.3749870807
 O        -0.1835213208       -3.4928532604       -5.1810677700
 C         0.6069718018       -1.3006143307       -4.8397992783
 C        -0.5692055460       -0.7109363727       -5.6139044341
 O        -1.2159381770       -1.3584839672       -6.4152093585
 C        -0.7313711605        0.9162447349       -5.6290197571
 C        -2.1020674295        1.3084183332       -6.2076702221
 C        -3.1800306408        0.6203367047       -5.2191428020
 O        -2.7446921425        0.1281123752       -4.1793926265
 C        -4.6831263294        0.3772233590       -5.4804117712
 C        -5.1295665020       -1.1940911713       -5.9154411321
 O        -6.1175384847       -1.4366795835       -6.5082163590
 C        -4.1409672895       -2.1979864135       -5.5083650073
 C        -4.5574784486       -3.6246978678       -5.7243363774
 C        -3.5164212072       -4.6546944592       -6.1107679554
 O        -2.8326394782       -4.4514338261       -7.1209961751
 C        -3.4777207968       -6.0640200216       -5.3351573405
 C        -3.0963280070       -5.8164451043       -3.8013660399
 O        -2.9797321239       -4.6544530230       -3.4947827604
 C        -3.1607237249       -7.0497764303       -2.8835417730
 C        -3.9414887425       -6.6927563056       -1.6101661623
 C        -2.9788844598       -6.1055736198       -0.5214868580
 O        -1.7961066064       -6.3683346263       -0.4199466814
 C        -3.6655312877       -5.2555934880        0.6137570278
 C        -4.1181677553       -3.8808181420       -0.0004156482
 O        -3.3715046020       -3.2914299301       -0.8075016937
 C        -5.4876602032       -3.2153131142        0.4118399230
 C        -5.4290785949       -1.6602875674        0.4377611974
 C        -4.8164053280       -1.0916309086        1.7483620271
 O        -3.7140932523       -1.4531338334        2.0639261900
 C        -5.6432050149       -0.0855746045        2.6282532629
 C        -6.8303750868       -0.7412489825        3.1584756960
 O        -7.3467693277       -1.7538170017        2.7003324885
 C        -7.5026995661        0.0004673307        4.4392028507
 C        -4.7362910037        0.5927002297        3.7542618232
 C        -6.2437631415        1.0673320024        1.6705087385
 C        -4.7113330562       -6.0983339457        1.2041488589
 C        -2.5411199778       -4.8287777336        1.6312187655
 C        -4.8648834050       -6.7179131863       -5.3904842977
 C        -2.3806511700       -6.9203769366       -5.9579342790
 C        -5.3102464141        0.6429994761       -4.0831375640
 C        -5.3377792075        1.3151593900       -6.5403164541
 C         1.0519736280       -0.5809478340       -3.5635041367
 C         1.6889122140       -1.5629947083       -5.8823330089
 C         0.9285130728       -7.2920321573       -2.5013130552
 C         3.3493090900       -6.4953231336       -2.2744764997
 C         0.6904931440       -7.7128217241       -8.5109942982
 C         2.6066653335       -6.9519550468       -9.7455828145
 C        -3.6974683274       -2.3311249470      -10.6064407294
 C        -2.7810256833       -3.6420177680      -12.5123021982
 C        -2.2013410868       -1.0001584924      -16.4903496625
 C        -2.2928059553        1.6494392283      -16.5473789908
 C        -7.5995875595       -2.0569505167      -21.3309708118
 C        -5.8815635605       -0.8800798051      -22.7871359984
 C        -9.7606107884        3.7146419222      -25.1959543304
 C        -7.6228379600        2.9137451610      -26.6078860500
 C        -6.8644516717        5.4208921354      -20.4363058392
 C        -5.0089224174        6.9440158849      -21.3914878609
 H        -3.3875272099        6.9589801699      -19.4110159675
 H        -2.4982937172        5.9968059297      -20.4465705031
 H        -2.6466901939        5.5564474177      -18.6469322595
 H        -4.3235909879        5.6992103649      -23.8824288038
 H        -6.0896602791        6.0926530483      -23.4095465238
 H        -5.5510040189        3.3221423657      -24.7446515293
 H        -5.6752351658        4.7844373383      -25.6110220974
 H       -10.1367179973        1.4424049305      -23.9735352643
 H        -9.5971572453        2.3840593235      -22.5080280828
 H        -9.0922556101       -0.3602214461      -23.2503839739
 H        -9.7998678004        0.1963769672      -21.7554262593
 H        -6.7287324599       -1.6903399397      -18.8153712948
 H        -6.6060238892        0.0639165988      -18.6032372725
 H        -4.1594856505       -1.5411030245      -18.2306732525
 H        -5.3895763617       -1.4217416809      -17.1004748287
 H        -3.6385019059        1.7048476440      -13.3315304256
 H        -2.0530166855        1.0459832306      -13.7386865500
 H        -4.3826956905       -0.7566638597      -12.6188364938
 H        -3.4527609760        0.2401740267      -11.5160804916
 H         0.5870071304       -2.9992030365      -12.0140794896
 H        -0.4676911690       -4.4851644512      -11.8616840039
 H         1.3699282556       -3.4339191135       -9.7875608867
 H         1.7592858243       -4.5618722811      -11.0035778013
 H         4.0581419462       -6.1483770967       -7.4339126927
 H         3.1695435560       -7.5805777147       -7.0366051920
 H         3.6369088596       -5.2229947551       -5.1555918088
 H         4.3667503902       -6.7508580126       -5.0475201120
 H        -0.0585474026       -4.7910971741       -1.6879634165
 H        -0.4022333337       -5.0543479286       -3.3374216706
 H         0.2505855244       -2.3616085081       -2.1951299238
 H        -1.2610604574       -2.8906343982       -2.6826382452
 H        -0.0054269704        1.3150810668       -6.2702605709
 H        -0.6400900873        1.3364854268       -4.5551500791
 H        -2.2447078767        0.9622380695       -7.2586926479
 H        -2.4378623307        2.3434449432       -6.1283221588
 H        -3.8418145817       -2.1256341606       -4.4524306289
 H        -3.3410248897       -1.9667210975       -6.1589648458
 H        -5.2057690013       -3.6008837910       -6.6442914419
 H        -5.2676581709       -3.8261746527       -4.8748302879
 H        -2.1945659092       -7.4802206830       -2.5975445193
 H        -3.6708681209       -7.8045077610       -3.4059291174
 H        -4.4683484578       -7.5309970823       -1.1544136884
 H        -4.7339118927       -5.9858832109       -1.7989656664
 H        -5.7252677900       -3.5169152119        1.3977319867
 H        -6.2483290690       -3.4788812981       -0.2796989651
 H        -6.4297405982       -1.2767555640        0.3498406285
 H        -4.8529650247       -1.2599540286       -0.4073753770
 H        -7.9329993969        0.9756846347        4.1705103478
 H        -6.8970503651        0.1996786321        5.3116739885
 H        -8.2680597882       -0.7438338569        4.7873487681
 H        -5.3880497255        1.2598483833        4.3694024370
 H        -3.8613507715        1.1299484264        3.3312649747
 H        -4.1879947778       -0.1199476195        4.3325818055
 H        -5.4575617064        1.7700640745        1.2730620105
 H        -6.9452550776        1.6621040697        2.2702902152
 H        -6.7039903885        0.5382952916        0.8525423027
 H        -4.2241223877       -7.0301753784        1.3424349909
 H        -5.5754995795       -6.2389156783        0.5241480469
 H        -5.1057626684       -5.7330201416        2.1208693754
 H        -1.5867265762       -5.3729174129        1.3453721956
 H        -2.8957678820       -5.0474662289        2.6202399596
 H        -2.3560704808       -3.7515002975        1.5345783030
 H        -5.1572051190       -6.8142100325       -6.4693048995
 H        -5.6490142242       -6.0736940235       -4.9076109180
 H        -4.7925082614       -7.6456593332       -4.9357690953
 H        -2.6867052968       -7.3258157334       -6.9271734254
 H        -2.1179699812       -7.8028730304       -5.3413386451
 H        -1.3969127451       -6.3474150837       -6.1016273350
 H        -4.5770671127        0.3216138534       -3.3442426484
 H        -6.2575082596        0.1868558472       -4.1783544489
 H        -5.4525799453        1.7601974565       -3.8760698162
 H        -5.2454348904        1.0565944557       -7.5352962195
 H        -4.9811641801        2.3888039096       -6.6137680788
 H        -6.4000185351        1.3625402584       -6.3282618003
 H         1.4634877024        0.4276217217       -3.7333749641
 H         1.8292254602       -1.1378711292       -3.0297178033
 H         0.1469150715       -0.3913940763       -3.0055646781
 H         2.3336634265       -2.3393562739       -5.4455624519
 H         2.2661287459       -0.6263517591       -6.1275565952
 H         1.3658815695       -1.9731304046       -6.8012243709
 H         1.1933697283       -8.2978298255       -2.4778376631
 H         0.1225087526       -7.3559908138       -3.1652870490
 H         0.5275000649       -6.9758460395       -1.5084631000
 H         4.0279162223       -5.7392250341       -2.3373111657
 H         3.8813709994       -7.4595449483       -2.5912248209
 H         3.2164743136       -6.5165858843       -1.2267397496
 H        -0.2619575956       -7.4581306501       -8.0126461450
 H         1.2691669054       -8.2839522822       -7.7851387773
 H         0.4778227537       -8.2413631613       -9.3731939228
 H         2.9968002657       -7.9225113257       -9.3089634329
 H         3.5473068466       -6.3682417074       -9.9153745328
 H         2.2256177130       -7.2934474528      -10.7474898325
 H        -3.5079888313       -2.7696331979       -9.6469919805
 H        -4.5667109437       -2.7404708207      -11.0667584141
 H        -3.8425709921       -1.2775271686      -10.3350710691
 H        -3.1179641886       -4.5396731747      -11.9737583917
 H        -1.8249264508       -3.8100717509      -13.0541945928
 H        -3.5333363056       -3.2057486864      -13.2610266567
 H        -1.6916089029       -0.9794388623      -17.4684550234
 H        -2.8189408373       -1.9186824254      -16.4289449107
 H        -1.5222944264       -1.0731218223      -15.6733649375
 H        -1.3887658450        1.5422774953      -15.9770107934
 H        -2.8528438618        2.4153661332      -16.1002862117
 H        -2.0889320482        1.9682676041      -17.5439184029
 H        -6.9642086575       -2.8619956704      -21.1022952382
 H        -8.2001075724       -2.2716383668      -22.3005384140
 H        -8.2771192795       -1.8378674813      -20.5438215543
 H        -5.0949803110       -1.5933306551      -22.5331080238
 H        -5.2549333641       -0.0311479710      -22.8730640562
 H        -6.4437264235       -1.1615536793      -23.7242094093
 H       -10.1214935723        3.7992894837      -24.2535739491
 H       -10.4184612508        2.9934400651      -25.7106007805
 H        -9.7445801489        4.5827360756      -25.7815483931
 H        -7.7059449630        3.7050734539      -27.3563833394
 H        -8.3419965049        2.2438968332      -27.0158981966
 H        -6.7029732710        2.4668208177      -26.4806986648
 H        -7.5005148050        5.1722293799      -21.3439044479
 H        -7.4040763200        6.3361112492      -19.9623615691
 H        -6.9387091258        4.5827488813      -19.7256902076
 H        -4.1025465587        7.1218728356      -21.9053504625
 H        -4.7910453956        7.6366131982      -20.5698779549
 H        -5.8060054888        7.4567095592      -21.8982171411
 Na       -5.3842902742        2.0914141250      -20.1207334569
 Na       -0.4916282568       -3.6068563936       -7.4568724710
