232

 C        -3.1022402130        5.8493177967      -19.5284303627
 C        -4.4345438906        5.1335377035      -19.8621858518
 O        -4.6845273840        4.1755033274      -19.2110220054
 C        -5.3604105147        5.5884652887      -21.0472848756
 C        -5.2391233962        4.5659413731      -22.2209109453
 O        -5.1369364211        3.3638708906      -22.1048885907
 C        -5.5247475745        5.3921638409      -23.5079179801
 C        -6.0617575590        4.4581892870      -24.6704934195
 C        -7.4971665922        4.1598494023      -24.4129876544
 O        -8.1087220391        4.8057967931      -23.5580859318
 C        -8.2730308918        3.1291721637      -25.3015990922
 C        -8.1613394338        1.8567566281      -24.4264272085
 O        -7.2102840226        1.0916603479      -24.5030690452
 C        -9.1110202661        1.7595076350      -23.2442088099
 C        -8.9833696274        0.4594319748      -22.3611227805
 C        -7.7489148902        0.4969384881      -21.5210672733
 O        -7.4326064534        1.5774648579      -21.0419612425
 C        -6.7901964445       -0.8053359970      -21.4659192918
 C        -5.7672272134       -0.5940864524      -20.3423287176
 O        -4.7195081730       -0.0544673588      -20.6154238863
 C        -6.2072123817       -0.9225062179      -18.8321270552
 C        -4.9717602151       -0.8719824927      -17.9357511423
 C        -4.2788425986        0.4274079899      -17.5163609115
 O        -4.5822461282        1.5266000447      -17.8842885481
 C        -3.1945878842        0.3264236826      -16.3565322864
 C        -3.9366672493        0.3624649606      -14.9180900356
 O        -5.0189841383       -0.0795659455      -14.7013485965
 C        -3.0732803290        0.9195994137      -13.7349330746
 C        -3.2023776331       -0.0641211163      -12.4691700533
 C        -2.1124470569       -1.1354202408      -12.3651071276
 O        -1.0375058198       -1.0241136080      -12.9573092813
 C        -2.4094585198       -2.4668523803      -11.5736934548
 C        -1.2197920959       -3.0324714113      -10.7335898800
 O        -1.2318255852       -2.7869905566       -9.5164240787
 C        -0.0240671864       -3.6090003250      -11.4760324032
 C         1.0463979913       -4.2711514663      -10.5116714792
 C         0.4709160247       -5.3841733238       -9.5726573382
 O        -0.6694904844       -5.4482180635       -9.1561738655
 C         1.4194045418       -6.4451074730       -8.9063612338
 C         1.9902982349       -5.6814769547       -7.5705892134
 O         1.6074092774       -4.6129656160       -7.1458566361
 C         3.1913979062       -6.5064096083       -7.0028322581
 C         3.3428145733       -6.2540813741       -5.5148457302
 C         2.1239618763       -6.5962280642       -4.6249466812
 O         1.2085799553       -7.1533625845       -5.1693480345
 C         2.0170235099       -6.3149301912       -3.0408946460
 C         1.6150304484       -4.8169859499       -3.0134906315
 O         2.4803718998       -4.0796585598       -3.4370526458
 C         0.1812122789       -4.4535456387       -2.5585038835
 C        -0.1604883139       -2.9893958754       -2.8800868966
 C         0.0497525650       -2.7963208353       -4.3373293575
 O        -0.1902268479       -3.6942092094       -5.1513412878
 C         0.6132807713       -1.3386066850       -4.7388205327
 C        -0.5402050213       -0.6567949052       -5.5797940474
 O        -1.1603200640       -1.3584724935       -6.3711093576
 C        -0.7419827708        0.8772579925       -5.5487610844
 C        -2.0707869200        1.2647096775       -6.1874324876
 C        -3.1376782583        0.5517212982       -5.3086881856
 O        -2.6783198121        0.1865348737       -4.2486371887
 C        -4.6969636100        0.3332726288       -5.5136831574
 C        -5.0357202429       -1.0738947667       -5.9272987644
 O        -6.1372872893       -1.3151666865       -6.3691108273
 C        -4.0266897973       -2.2972264270       -5.5393670834
 C        -4.6569757080       -3.7039727458       -5.8279143743
 C        -3.5469139651       -4.7429517185       -6.1788255692
 O        -2.6731144626       -4.4358845059       -7.0527224890
 C        -3.4451716008       -6.0732740007       -5.4020087924
 C        -3.1405496683       -5.7684531531       -3.8262430172
 O        -2.8360479414       -4.7120055633       -3.3385202461
 C        -3.1645787644       -6.9454510849       -2.8723863171
 C        -3.8900745315       -6.6936913189       -1.5845697058
 C        -2.9905760358       -6.1347217965       -0.4837283584
 O        -1.8380352991       -6.5470703789       -0.4039792075
 C        -3.6673320641       -5.2552462508        0.6888946242
 C        -4.1512268088       -3.7494743467        0.0997099734
 O        -3.4567413067       -3.1743765026       -0.6506635684
 C        -5.5433931543       -3.2626319845        0.5868309547
 C        -5.5759338745       -1.6555332320        0.5482911821
 C        -4.8323291188       -1.0516102303        1.7665297184
 O        -3.7081063302       -1.4615437773        1.9927358156
 C        -5.6123030998       -0.0280317326        2.6065718910
 C        -6.8870870847       -0.8219072973        3.2915906496
 O        -7.2024355622       -1.9299730326        2.8736548715
 C        -7.6624683308       -0.1681899027        4.4464870159
 C        -4.7389573134        0.6432551941        3.6851193348
 C        -6.2046556129        1.1014908338        1.6936423095
 C        -4.6743281900       -6.1681597359        1.3500720085
 C        -2.5615252519       -4.9074421911        1.7904939424
 C        -4.8216487760       -6.7536109768       -5.4140949480
 C        -2.3758018473       -7.0174049388       -6.0513701187
 C        -5.3152575898        0.5431731290       -4.0974658687
 C        -5.2526175694        1.3569901122       -6.5013743153
 C         1.1841016884       -0.4616376528       -3.5829044589
 C         1.7352790268       -1.3433350664       -5.8442336995
 C         0.8519789088       -7.2011718805       -2.4922523846
 C         3.4160774597       -6.5118187097       -2.3655899455
 C         0.5964201333       -7.7205841218       -8.5681836662
 C         2.6618309244       -6.7983467051       -9.8106983497
 C        -3.6132706512       -2.3077920547      -10.5884520574
 C        -2.8159340704       -3.5550315125      -12.7322691052
 C        -2.3124842313       -0.9187596019      -16.5266574627
 C        -2.2427400021        1.5420304332      -16.5206947969
 C        -7.7260814102       -2.0360476206      -21.3211377830
 C        -5.9590007175       -0.9867142557      -22.8489093353
 C        -9.7298834100        3.7354902722      -25.3524650536
 C        -7.6499264413        2.8061953526      -26.6002722536
 C        -6.8253219171        5.5109901323      -20.7231597035
 C        -5.1643028945        7.0814109751      -21.3188745240
 H        -3.1925678917        6.9489224555      -19.2055316929
 H        -2.4600592206        5.9672247345      -20.3941052291
 H        -2.6907025163        5.2611967853      -18.7478158807
 H        -4.5359042552        5.8024536201      -23.8616939568
 H        -6.2157674163        6.2013014486      -23.3423735780
 H        -5.4753770045        3.6065042063      -24.6232031466
 H        -5.7184780388        4.8604183202      -25.6043950314
 H       -10.1088480580        1.8411923457      -23.7054528328
 H        -8.9129416185        2.6159152241      -22.5943574325
 H        -9.0578351874       -0.2657163800      -23.1765116946
 H        -9.9485835024        0.4128215569      -21.8808881060
 H        -6.5294449811       -1.9502213129      -18.6626290390
 H        -6.9529529184       -0.1598578520      -18.4844735260
 H        -4.2396481974       -1.5893292829      -18.2396626396
 H        -5.2732170406       -1.2527418220      -16.9174010482
 H        -3.4697405073        1.8327907810      -13.3250429765
 H        -2.0492627771        1.0547431093      -14.0214232620
 H        -4.1903051463       -0.5131074962      -12.4699415707
 H        -3.1334616119        0.5215921138      -11.5582558099
 H         0.3972546396       -2.6903620006      -11.9477219934
 H        -0.3556140384       -4.3345709263      -12.2376611051
 H         1.4985939328       -3.4190148392       -9.9613024505
 H         1.8890229826       -4.6351234814      -11.2619300477
 H         4.0614617622       -6.2887962677       -7.5737614068
 H         3.0364078137       -7.4608128913       -7.1597263395
 H         3.7248486350       -5.2313711724       -5.3231302862
 H         4.1954430677       -6.9176857768       -5.1430001517
 H        -0.0035611617       -4.6960229303       -1.5199747713
 H        -0.5454736997       -4.9750486011       -3.2217901209
 H         0.4055380556       -2.2839466983       -2.3031557492
 H        -1.1791603962       -2.7078639660       -2.5825836639
 H         0.1010600522        1.3342400832       -6.1692883916
 H        -0.6859212581        1.1754727075       -4.4923979559
 H        -2.1856948722        0.9671627013       -7.3208498020
 H        -2.4458867895        2.2674376634       -6.0839900873
 H        -3.7645277075       -2.4047658979       -4.4987213066
 H        -3.1419691643       -2.2014908280       -6.1280787683
 H        -5.4043349250       -3.5945855230       -6.5825921060
 H        -5.1883974816       -3.9541262386       -4.9514902437
 H        -2.0982137249       -7.0697038328       -2.7243525357
 H        -3.5137750515       -7.8912987061       -3.2483243593
 H        -4.2489440159       -7.7034029178       -1.1622616122
 H        -4.8433079223       -6.1638811538       -1.7066976923
 H        -5.6566637112       -3.5851740768        1.6323329516
 H        -6.2810926373       -3.6947367430       -0.0233583605
 H        -6.5544957186       -1.2498652707        0.5918617877
 H        -5.1141697005       -1.3259245607       -0.3517636597
 H        -7.7393968251        0.9497074075        4.1984553117
 H        -7.0342234847       -0.1838393772        5.3366934281
 H        -8.6002470397       -0.7266648795        4.7087459886
 H        -5.4165500692        1.1706235076        4.3873311032
 H        -3.9452407852        1.3489466981        3.3455765861
 H        -4.0868148519       -0.1015204245        4.1158783389
 H        -5.3393428006        1.4796252569        1.1631216566
 H        -6.6378344743        1.9107478861        2.2917523790
 H        -6.8721971016        0.6633616512        0.9708507986
 H        -4.1223817965       -7.1092226470        1.6034797982
 H        -5.4855075980       -6.4154883477        0.7363230711
 H        -5.1241483681       -5.6859145445        2.2954483501
 H        -1.6733406899       -5.4198876632        1.4179593307
 H        -2.9349970579       -5.2976144858        2.7352724021
 H        -2.3204269949       -3.8905670106        1.8752064130
 H        -5.0502543598       -6.9743475253       -6.4688997572
 H        -5.6251898329       -6.1169804401       -5.0510847891
 H        -4.7173935269       -7.6809621658       -4.8460700233
 H        -2.8558913768       -7.6973521067       -6.8308567614
 H        -2.0209254555       -7.7012654760       -5.3188159058
 H        -1.4625718840       -6.5558758169       -6.4917022048
 H        -4.8223805969       -0.2021590372       -3.5006440297
 H        -6.3914474982        0.6859497076       -4.1506787694
 H        -4.7807613656        1.4221186211       -3.7334077917
 H        -4.7668991574        1.3403428370       -7.4283692281
 H        -5.1686600289        2.3762845573       -6.2389079580
 H        -6.2907692107        1.1134848149       -6.7034885902
 H         1.8330873571        0.3181339874       -3.9370607353
 H         1.8674423468       -1.1150442047       -3.0522216512
 H         0.4541834350        0.1227611985       -2.9813031186
 H         2.5477305302       -2.0286573821       -5.6100485558
 H         2.1071417259       -0.3730839817       -5.9893055629
 H         1.3834137453       -1.7841302055       -6.8272296337
 H         1.1098065941       -8.2127617248       -2.3754966718
 H         0.0312148830       -7.2760632715       -3.1624716346
 H         0.4188148827       -6.8553273956       -1.5375805467
 H         4.2103717302       -5.8260620647       -2.5739040632
 H         3.7240521432       -7.4847351722       -2.7469592118
 H         3.4758415756       -6.4581196373       -1.3010690813
 H        -0.3849629163       -7.4524195174       -8.1201867070
 H         1.1639298557       -8.2176651420       -7.7605682204
 H         0.4292196034       -8.3765552543       -9.4330274903
 H         3.1232160600       -7.7947365978       -9.6821844040
 H         3.4252857644       -6.0851292239       -9.5837618362
 H         2.5595136572       -6.7703455658      -10.9529919819
 H        -3.6558133614       -3.2756938343      -10.0560457428
 H        -4.5812411941       -2.1309749079      -11.0615238532
 H        -3.3788325323       -1.6813796295       -9.8258975336
 H        -3.0527066253       -4.4734571152      -12.2651781595
 H        -2.0354153937       -3.6712807440      -13.4784719929
 H        -3.6657588346       -3.0312381671      -13.2196628588
 H        -1.8780716422       -0.9230323069      -17.4998930212
 H        -2.9265663467       -1.8312864547      -16.4433537371
 H        -1.5726780514       -0.9961406069      -15.6848268158
 H        -1.5086770990        1.5760711420      -15.7382603446
 H        -2.7185558494        2.5737359155      -16.5387580625
 H        -1.7811769554        1.3314657981      -17.4774789483
 H        -7.1256945740       -2.9522073338      -21.3581021792
 H        -8.3475460740       -2.0444386146      -22.1771124128
 H        -8.3783127608       -1.9020439498      -20.4142253221
 H        -5.2669703039       -1.7962879609      -22.8007215190
 H        -5.2058696511       -0.1243443099      -23.1281663146
 H        -6.8168487908       -1.0999942471      -23.5281323995
 H        -9.9958310761        4.1582247520      -24.3803920959
 H       -10.4990536686        3.0212946345      -25.5378111181
 H        -9.6146631734        4.4266820564      -26.1955317037
 H        -7.4568628915        3.6879381917      -27.1881329113
 H        -8.3132389106        2.3019226671      -27.2573243994
 H        -6.8252546739        2.2220475718      -26.2842033316
 H        -7.4903487528        5.4375876958      -21.6129233764
 H        -7.2112280512        6.4647754522      -20.2014637196
 H        -7.0142761239        4.6276260533      -20.0249419620
 H        -4.2388516978        7.4802981531      -21.7050298487
 H        -5.2256968545        7.7217160131      -20.4448723018
 H        -5.9489471796        7.4323161886      -21.8881827044
 Na       -5.4092723642        2.2926392325      -20.1492854734
 Na       -0.4756665166       -3.7337642595       -7.3953561804
