232

 C       -19.7997307050       -4.8133463940       -5.4425670976
 C       -19.6101981820       -5.7202671640       -4.2341810356
 O       -18.5551708492       -6.2763822496       -3.9913770989
 C       -20.8221284820       -5.8128032577       -3.1223331907
 C       -20.1896018275       -5.4039792623       -1.7339810765
 O       -19.6137885847       -6.2629855473       -1.1598108456
 C       -20.3242159162       -3.9548792972       -1.1945300389
 C       -19.0726545685       -3.4661171129       -0.4186125697
 C       -17.7314892526       -3.5956807273       -1.2662730775
 O       -17.6707180692       -3.2913704936       -2.4194857598
 C       -16.3825605638       -3.9927320352       -0.5335903376
 C       -16.2048468634       -5.5231228136       -0.7213836371
 O       -16.8053738070       -6.3344324630       -0.0772782400
 C       -15.2915032924       -6.0988566985       -1.9027801100
 C       -14.9071829857       -7.5896568376       -1.5015272986
 C       -15.1436545942       -8.6271800199       -2.5693337871
 O       -16.2771944772       -8.7363357207       -3.0228380870
 C       -14.0194783794       -9.6819437914       -2.7768356129
 C       -12.7696428577       -9.0475738309       -3.4732486119
 O       -12.8217321847       -7.9427651243       -3.9789564920
 C       -11.4706198916       -9.8298167635       -3.4484340818
 C       -10.5188888299       -9.3783379723       -4.4968046284
 C        -9.0737634978       -9.9036086910       -4.2211851824
 O        -8.9311584120      -10.4751465961       -3.1865253345
 C        -7.9326479740       -9.7284832020       -5.2347344992
 C        -7.5303358676       -8.0431366371       -5.3277893904
 O        -8.0241816834       -7.3524629358       -4.4621860445
 C        -6.7155830876       -7.5553577209       -6.5573107934
 C        -6.7256795414       -6.0444601869       -6.8583666781
 C        -7.9012627385       -5.7498396978       -7.7958933252
 O        -8.6106595605       -6.6284608079       -8.2575782876
 C        -8.1791006344       -4.2889796494       -8.2355604734
 C        -6.9153190851       -4.0131594126       -9.1912970612
 O        -5.7899059458       -3.9797944189       -8.6879066046
 C        -7.2273357761       -3.7096459405      -10.7106371287
 C        -5.9089852414       -3.6357498081      -11.4106717943
 C        -5.9057027404       -3.1035198760      -12.8635189133
 O        -6.9161103929       -2.6620339904      -13.3198540548
 C        -4.4410428251       -3.2678551953      -13.6355637106
 C        -3.4849301194       -2.1905377313      -13.1010523417
 O        -3.7407887529       -1.4400223541      -12.2210713137
 C        -2.0821421958       -2.0276581131      -13.7209934398
 C        -0.9821251483       -2.3767449542      -12.7160513652
 C         0.4833381395       -1.8994630005      -13.1415727614
 O         0.6331617194       -1.0677554724      -14.0160835441
 C         1.6992774907       -2.4891502461      -12.5103936252
 C         2.7791276835       -1.4289571018      -12.1633212038
 O         3.9716246416       -1.4541271052      -12.3099470434
 C         2.1664295884       -0.0979027548      -11.4995345104
 C         3.1919003014        0.8312004804      -10.8461746515
 C         2.9108108535        2.3336287380      -11.0328766503
 O         2.0899390637        2.5575464901      -11.9571506128
 C         3.7152169837        3.5335440127      -10.3865386763
 C         4.4086967568        4.2021098911      -11.6901914603
 O         5.4996092714        3.8375283464      -12.0499907816
 C         3.6518215014        5.2249588089      -12.4078190609
 C         4.2124260967        6.6046106528      -12.3415137936
 C         5.5512242821        6.8370477096      -13.1123310579
 O         5.6995229048        6.6118345297      -14.3034711503
 C         6.6365403167        7.5189987873      -12.2958134654
 C         7.8137751861        7.5568401667      -13.3701650970
 O         8.0876274784        8.6130210673      -13.9189486108
 C         8.4923290702        6.1629398895      -13.7682603546
 C         9.1050364094        6.2803588409      -15.1713992848
 C         8.0130102069        6.0669324296      -16.3740010215
 O         6.9461231631        5.4655480386      -16.1886175626
 C         8.5588367100        6.4418779036      -17.8088090975
 C         9.3717681097        5.0121128488      -18.2182653286
 O         9.6589026867        4.1440568191      -17.4046291424
 C         9.8909130377        4.8778021154      -19.7167125835
 C         9.6409248221        3.3482744581      -20.0496313304
 C         8.2031571803        2.8399259912      -19.8609612559
 O         7.2365759336        3.4318831094      -19.2473322573
 C         7.9528767840        1.4657772508      -20.4628244005
 C         8.1097767591        0.4697985221      -19.1219068061
 O         8.8590798394       -0.4553828699      -19.2812066584
 C         7.2800316507        0.6654815959      -17.8657106124
 C         8.0611001875        0.7512719029      -16.5104736077
 C         7.2595451500        1.3194646817      -15.4468197349
 O         7.6425271114        2.3700435979      -14.9810477055
 C         6.1796338328        0.5383161387      -14.4926036429
 C         4.7820588772        1.1450614941      -14.7850878598
 O         4.5981387413        2.3440049991      -14.6990533934
 C         3.5728926902        0.3136209834      -15.1344355694
 C         6.2682021792       -1.0255552157      -14.7709934023
 C         6.5040721040        0.7861352062      -13.0137137133
 C         6.5263201150        1.2373867118      -21.0366862746
 C         8.9187063458        0.9894620194      -21.5269138757
 C         7.4468641114        6.7862905048      -18.8422189662
 C         9.5987186150        7.5511470055      -17.8066738657
 C         6.1853837959        9.0060388562      -11.9637457252
 C         7.2088109014        6.7752984126      -11.0581116017
 C         2.8323726486        4.3774269165       -9.4841147314
 C         4.8703822498        2.7986268369       -9.4869069444
 C         1.3803380916       -3.2985429186      -11.2403285238
 C         2.2703212268       -3.4283295193      -13.6829112222
 C        -3.9229522035       -4.6812167952      -13.5881514932
 C        -4.7462233128       -2.9222266843      -15.1266463178
 C        -9.5873887239       -4.1995624268       -8.8933662853
 C        -7.9299062254       -3.1514278828       -7.1291944378
 C        -6.6839965938      -10.4247065237       -4.5824172373
 C        -8.2865711697      -10.3792213422       -6.6319180436
 C       -13.6455763852      -10.2723292719       -1.3714076551
 C       -14.6274830571      -10.8737880174       -3.6300007713
 C       -15.2247657307       -3.1474482742       -1.2052569613
 C       -16.3642261184       -3.6089516937        0.9742367858
 C       -22.1329545628       -4.9710280622       -3.5234804442
 C       -21.2862449194       -7.2875854654       -3.0927760676
 H       -20.4193114673       -3.9746511053       -5.2495431809
 H       -20.4349295887       -5.5292740869       -6.0576504828
 H       -18.8089777263       -4.5665066850       -5.7281763486
 H       -21.2361971248       -3.9818403366       -0.5835136973
 H       -20.4458711829       -3.3212135107       -2.0667381195
 H       -18.8967235759       -4.0284227109        0.4855725077
 H       -19.1295675820       -2.4194175251       -0.2722583532
 H       -14.4463617864       -5.4357020029       -2.0118877332
 H       -15.8231592740       -6.0384460337       -2.9093505442
 H       -15.5274691101       -7.8505819896       -0.6389102506
 H       -13.9887068558       -7.5736900801       -1.0717052260
 H       -11.7193144699      -10.8680076924       -3.5358369398
 H       -11.1367904584       -9.5629497680       -2.4521290825
 H       -10.5310894084       -8.3137574563       -4.4441140724
 H       -10.8051626399       -9.6550276560       -5.5260345301
 H        -6.9618635024       -8.2062264316       -7.3873448318
 H        -5.6909593767       -7.6347710291       -6.1795138747
 H        -5.7529921929       -5.8068739407       -7.4461031824
 H        -6.6237764472       -5.4941575938       -5.8897133711
 H        -7.7772957925       -2.8472850712      -10.9361404061
 H        -7.7835184795       -4.6042793335      -11.1783627687
 H        -5.4702203569       -4.5865505586      -11.4776385085
 H        -5.2331489645       -2.9038351611      -10.8853619631
 H        -1.8310805035       -1.0417749800      -14.1743409723
 H        -2.0821670403       -2.5971708987      -14.6299624343
 H        -0.9822128322       -3.5191611603      -12.7307001300
 H        -1.0426354969       -2.0417173184      -11.6667092079
 H         1.7075289367       -0.5700797924      -10.6360430149
 H         1.4876028162        0.4390248150      -12.1378813395
 H         4.1221950953        0.5510003306      -11.3254740819
 H         3.3092711803        0.5505612723       -9.7514726274
 H         2.5618572296        5.1480251894      -12.1574522351
 H         3.6660918213        4.7898950087      -13.4669048056
 H         4.4632585930        6.8846291968      -11.2799009964
 H         3.4736857004        7.2457829557      -12.8676486415
 H         7.9030362147        5.3110446867      -13.6677674002
 H         9.3392717326        6.0523691411      -13.1127068094
 H         9.7583501783        5.5056549545      -15.3792444487
 H         9.6078341175        7.2616678101      -15.2558777593
 H        10.9909335443        5.0219937720      -19.7420604851
 H         9.4782317177        5.4722024742      -20.5294541754
 H        10.3372110970        2.6648797908      -19.3876200584
 H         9.9993463382        3.2012820969      -21.0601921487
 H         6.5584393040       -0.0786756477      -17.7354224666
 H         6.6279942439        1.5147816346      -17.8089584777
 H         8.8322055759        1.5122911781      -16.6448313657
 H         8.4371546297       -0.2904772500      -16.2497328356
 H         3.8652086691       -0.5272268501      -15.8532691150
 H         2.8807666467        0.9949167677      -15.5697229603
 H         3.0551710190       -0.2528892300      -14.2613463481
 H         5.6908591706       -1.5951929605      -14.0595217590
 H         7.3696443303       -1.1978533363      -14.6944195455
 H         5.8016565705       -1.1785346121      -15.7523913514
 H         5.8743627589        0.3486819127      -12.3458449746
 H         6.5071424439        1.8257433967      -12.7522790730
 H         7.5854974291        0.6885241758      -12.9014864750
 H         6.5442961519        0.1935941826      -21.0908055273
 H         6.4541565864        1.7096000377      -21.9759772673
 H         5.7013747109        1.6420795077      -20.5862291976
 H         8.7874578722       -0.1055010054      -21.6776738753
 H         9.9485839656        1.0785920787      -21.0819007222
 H         8.7416290489        1.3450239369      -22.5494843605
 H         6.8410437123        7.6174216401      -18.4579298452
 H         6.7678119159        5.9502929673      -18.8845979418
 H         7.8425321460        6.9118418792      -19.7910695150
 H        10.5321414673        7.2498151656      -17.2174065546
 H         9.2654957298        8.4432530003      -17.3636919926
 H         9.8525381826        7.8406292407      -18.8149640144
 H         6.9647763292        9.3918125044      -11.2669194090
 H         5.2591594799        9.2410564670      -11.5196786636
 H         6.1484796100        9.6266255310      -12.8192458272
 H         7.2313562822        7.4470091871      -10.2094432245
 H         8.1865395362        6.3597550583      -11.2529241774
 H         6.5900283340        6.0000226915      -10.6541016104
 H         2.0372761854        3.8406673822       -9.0224130022
 H         2.2605586925        5.0710775738      -10.1197641535
 H         3.2907358922        5.0840121992       -8.7735461137
 H         5.0642838169        3.4834125973       -8.7277581736
 H         5.7498218819        2.5763609982      -10.0383341538
 H         4.4146353579        1.9877061038       -8.9049702246
 H         0.9129028932       -2.6671602071      -10.5531743209
 H         2.2662810125       -3.6487116237      -10.7269094320
 H         0.6829863729       -4.1093488557      -11.2776300986
 H         1.5984858026       -4.1274370770      -14.1723118949
 H         3.0197812486       -3.9037085086      -13.1123980662
 H         2.7903771592       -2.8466253910      -14.4299658262
 H        -2.9349286899       -4.8123359562      -14.0713096136
 H        -4.5819056265       -5.2057473255      -14.2271201745
 H        -3.7418207495       -5.1632933655      -12.6026219282
 H        -3.9519100792       -3.4816335958      -15.6585518127
 H        -4.7226002534       -1.8574658531      -15.4172581887
 H        -5.6699326774       -3.2878128658      -15.4939189496
 H       -10.2644164938       -3.4046313283       -8.5508474300
 H       -10.0578212145       -5.1726842853       -8.6472891559
 H        -9.2910444231       -4.1378854034       -9.9378065847
 H        -8.7554042979       -3.2058533352       -6.4428563016
 H        -7.8992663322       -2.1586210077       -7.6375532003
 H        -6.9923798934       -3.4371610993       -6.5982841119
 H        -7.0242390670      -11.2798859737       -4.0753628173
 H        -6.0230151798       -9.8386754601       -3.9653426445
 H        -6.0650609688      -10.8802647963       -5.3512839628
 H        -8.6217925580      -11.3824282532       -6.5618505630
 H        -7.4712849311      -10.3425560218       -7.4391531508
 H        -9.1780106177       -9.8091821450       -6.9539259996
 H       -12.9043832879       -9.6555034033       -0.8270143770
 H       -13.3688853570      -11.3483916364       -1.5458468930
 H       -14.5256599428      -10.3146725279       -0.7384158672
 H       -14.6815638305      -10.5692100802       -4.6292423868
 H       -15.5718074227      -11.0160680844       -3.1587297355
 H       -13.9903554047      -11.7258390871       -3.5098710640
 H       -15.3644300179       -3.1744096618       -2.2530919710
 H       -14.1928024123       -3.6260206237       -1.1015637410
 H       -15.2353801767       -2.0894396261       -0.8575994844
 H       -16.7521671425       -4.4625823397        1.5876143940
 H       -16.9469143158       -2.8109852905        1.1330261240
 H       -15.3145898567       -3.4526034285        1.2848208080
 H       -22.0054759531       -4.1071743200       -4.0930547100
 H       -22.7765800168       -4.6750402499       -2.7402741878
 H       -22.8226145832       -5.6849204408       -4.1296845265
 H       -22.0967483819       -7.3669152314       -2.3007158088
 H       -20.5485225346       -8.0051230701       -2.7487786796
 H       -21.6470026114       -7.5688728634       -4.0505602901
 Na      -17.8378890684       -7.4539021966       -2.0517059498
 Na        6.2284017400        4.0760627356      -14.3879135471
