232

 C        -3.1836178905        5.9063549951      -19.8104238527
 C        -4.6016607073        5.3227177446      -19.9867514392
 O        -5.0682084727        4.6586964364      -19.1057237845
 C        -5.5540458348        5.9358959695      -21.1061224390
 C        -5.3656232448        4.9601074723      -22.3815280427
 O        -5.2015662884        3.7619711612      -22.3059317093
 C        -5.4063666903        5.4734901176      -23.8002189339
 C        -6.0061786018        4.4052181269      -24.8205374316
 C        -7.5784095378        4.2178058267      -24.7171059582
 O        -8.2504100299        4.6884458848      -23.7940191675
 C        -8.2767947522        3.0914860923      -25.6299972606
 C        -8.2594434861        1.8151784140      -24.5952142046
 O        -7.6903815120        0.7582034715      -24.8218667795
 C        -9.0665989163        1.9408434049      -23.1956321951
 C        -8.9817518508        0.5805720979      -22.3710557529
 C        -7.6905136505        0.5545530649      -21.6336459841
 O        -7.2895617558        1.5070224389      -20.9582522487
 C        -7.0059401071       -0.8843060951      -21.2817333191
 C        -5.9098886662       -0.6235568617      -20.1642480417
 O        -4.9191365949       -0.0575914752      -20.5081292541
 C        -6.2280219474       -1.0416324627      -18.7326087748
 C        -5.1057591372       -1.0445133693      -17.7707390589
 C        -4.4023762458        0.2986413679      -17.4850997426
 O        -4.6291494676        1.3405674226      -18.0499819850
 C        -3.2546486890        0.3046284101      -16.4390600603
 C        -3.7470925928        0.3150180122      -14.9074975912
 O        -4.7277993351       -0.2404058225      -14.5439152052
 C        -2.6974191822        0.9633751620      -13.8888672598
 C        -2.9202391498        0.3017937546      -12.4605544119
 C        -1.9538753756       -0.9253631794      -12.2472982001
 O        -0.7742316992       -0.8609904842      -12.6347916495
 C        -2.4545871837       -2.3629008177      -11.6630332362
 C        -1.2375381917       -2.9160342404      -10.8758422852
 O        -1.0342929502       -2.5808746234       -9.7250077045
 C        -0.2222773314       -3.7814963492      -11.6597336929
 C         0.9749953545       -4.2034964466      -10.8124683646
 C         0.5277244201       -5.3629576375       -9.7823139372
 O        -0.6429118886       -5.3472458575       -9.4343195478
 C         1.5434151541       -6.3351214109       -9.1118773992
 C         2.0321570431       -5.7465120098       -7.7676932379
 O         1.6186299655       -4.7244424089       -7.2243513726
 C         3.1594090070       -6.4053294614       -7.0833071045
 C         3.1403299478       -6.0537030712       -5.5965332986
 C         1.9313910565       -6.5961906297       -4.7346591738
 O         1.0570950522       -7.2919815838       -5.2044419782
 C         1.9654917671       -6.3798541601       -3.1478269484
 C         1.6018284497       -4.8824542343       -2.9425403664
 O         2.4279582781       -4.1738799889       -3.4803821786
 C         0.3698000228       -4.2292746393       -2.2676201447
 C         0.1147282560       -2.7553871326       -2.7570696023
 C         0.1991493907       -2.5666797341       -4.2051012612
 O         0.0140568803       -3.5325925924       -4.9084872081
 C         0.7703120662       -1.2454326959       -4.8069848283
 C        -0.2490025064       -0.7501202543       -5.7444056697
 O        -0.8201564499       -1.4531776029       -6.5964540716
 C        -0.6371172883        0.7372688599       -5.8309023719
 C        -2.1371868286        1.0548682416       -6.0067889169
 C        -3.0406765561        0.2754736829       -4.9844108357
 O        -2.5973749763       -0.2180247156       -3.9617477245
 C        -4.5974502384        0.3581513206       -5.3121798179
 C        -5.0380446373       -1.1235493654       -5.8531979696
 O        -6.0609602025       -1.3176194280       -6.4390280015
 C        -3.9562858562       -2.2611886579       -5.7422310447
 C        -4.5600275077       -3.6506381457       -5.8795466166
 C        -3.5082726825       -4.7258595406       -6.0785386440
 O        -2.4832925075       -4.4974783995       -6.7957309012
 C        -3.5695305344       -6.1245326647       -5.3740480790
 C        -3.1535483560       -5.7918666027       -3.8088886308
 O        -2.6557980316       -4.7141464387       -3.6161088091
 C        -3.2149727863       -6.8707771788       -2.7125520251
 C        -3.9096253309       -6.3146081633       -1.4646787419
 C        -3.0051995521       -6.0567033698       -0.3267529296
 O        -1.8471150976       -6.4466843128       -0.2716206752
 C        -3.6565828794       -5.3877138688        0.9484985351
 C        -4.1355252395       -3.9879214941        0.4601334157
 O        -3.5387286524       -3.3465129629       -0.3565886010
 C        -5.4945244228       -3.4612392984        0.9796849158
 C        -5.7748333841       -1.9919418150        0.7420862198
 C        -4.9437502762       -1.0958618320        1.7315973785
 O        -3.7655060745       -1.3110367784        1.8802864056
 C        -5.7360845393       -0.1232972188        2.7001957916
 C        -6.7802298540       -0.9869769142        3.5403581982
 O        -6.6822431879       -2.2195799346        3.5193737562
 C        -7.8017040187       -0.1880704020        4.4128507498
 C        -4.8021183099        0.4375073376        3.7410758537
 C        -6.5208146350        0.9255632865        1.8668006039
 C        -4.8071928831       -6.2937392473        1.5654785218
 C        -2.5359174937       -5.0722782435        2.0082254935
 C        -4.9685727861       -6.8166216452       -5.4830156438
 C        -2.3499535690       -7.0377090366       -5.8930734004
 C        -5.5259860972        0.5871557867       -4.0434191907
 C        -4.9848517145        1.3056371198       -6.4130847429
 C         1.2011899790       -0.1947057483       -3.7018541611
 C         2.0120657776       -1.7390956890       -5.6658210713
 C         0.9637272846       -7.3955331847       -2.4845919697
 C         3.4164465425       -6.5519143297       -2.6442342439
 C         0.8815288074       -7.6717390439       -8.8122214446
 C         2.6778957444       -6.6579337853      -10.0444057937
 C        -3.7173856484       -2.2681390957      -10.7207355505
 C        -2.7461636872       -3.2066126361      -13.0253266168
 C        -2.3857041564       -1.0552911040      -16.4169600871
 C        -2.4565956390        1.5628566431      -16.8269294527
 C        -7.9665280291       -2.0852516612      -20.8305585397
 C        -6.3102156725       -1.3352760549      -22.5992208593
 C        -9.7612881775        3.2020204414      -25.9417144121
 C        -7.3605860448        2.6233959989      -26.7805385521
 C        -7.0248685289        5.8161163118      -20.4310923872
 C        -5.2786365868        7.4115693809      -21.3740929740
 H        -3.3664785253        6.8708288264      -19.3000434281
 H        -2.5745109034        6.1839084862      -20.6970116191
 H        -2.6108411076        5.2986678133      -19.1755247134
 H        -4.3762768047        5.8828473894      -24.0171991006
 H        -6.1447729892        6.3267090392      -23.8608037348
 H        -5.4617184359        3.4013350778      -24.6391841638
 H        -5.6377187803        4.7513249218      -25.8439589624
 H       -10.0894877707        2.0276389111      -23.5506878638
 H        -8.8965526196        2.7858474471      -22.5203522321
 H        -9.2966763283       -0.2078271398      -23.0408922815
 H        -9.8264740553        0.7241934337      -21.6998629229
 H        -6.8097281386       -1.9397701228      -18.5309747832
 H        -6.7534240580       -0.1707340995      -18.4747898799
 H        -4.4295991704       -1.8824968672      -17.8496712309
 H        -5.5623431767       -1.1783905794      -16.8274623963
 H        -2.9045047237        2.0328753579      -13.9051668845
 H        -1.6297533123        0.6637413533      -14.1623029945
 H        -3.9696863293       -0.1241183790      -12.3654721687
 H        -2.7004885955        0.9584739471      -11.6148343436
 H         0.0906254042       -3.1422039027      -12.4934343355
 H        -0.6409034087       -4.7011595527      -12.0575400912
 H         1.2694322043       -3.3706095295      -10.2686447805
 H         1.7668432952       -4.3669719739      -11.5498127551
 H         4.2400781113       -6.1553583133       -7.4998938981
 H         3.0582711057       -7.4396719776       -7.2476377936
 H         3.4904140011       -5.0954463014       -5.3368090432
 H         3.9381991186       -6.7019109614       -5.2348271017
 H         0.4007701602       -4.2375059576       -1.2096701216
 H        -0.5070520880       -4.6856430483       -2.6530613602
 H         0.7827279511       -2.0826130814       -2.2330940558
 H        -0.8346417220       -2.2860356336       -2.4350629504
 H        -0.0985064382        1.1697620460       -6.6074089093
 H        -0.3858805650        1.3149483750       -4.9097637627
 H        -2.7164293542        1.0839460993       -6.9496644481
 H        -2.2478090086        2.0551288630       -5.7128512473
 H        -3.4141656892       -2.3397897100       -4.7550249897
 H        -3.1704347941       -2.2983940308       -6.4807505069
 H        -5.3325757500       -3.5618849430       -6.7455174888
 H        -5.2009076069       -3.9972357343       -4.9957060500
 H        -2.1523062653       -7.1827214107       -2.4243743670
 H        -3.7001935670       -7.7891469097       -3.0456195513
 H        -4.5999077801       -7.0384411181       -1.0887560241
 H        -4.5191721819       -5.4666363917       -1.6110294022
 H        -5.4448363941       -3.5522984423        2.0795456415
 H        -6.3134869710       -4.1223131592        0.6448938576
 H        -6.8400749681       -1.7369366274        0.8957123072
 H        -5.5178297663       -1.6805405438       -0.3311900488
 H        -7.4715306837        0.7520889510        4.8609479364
 H        -8.1487318736       -0.7064733642        5.2277758966
 H        -8.6042096205       -0.0123898731        3.6817497618
 H        -5.1063998690        1.3743654963        4.2199557191
 H        -3.9172098262        0.8336038454        3.2031211004
 H        -4.4344613862       -0.3561329074        4.3069336080
 H        -5.7884619577        1.2874853031        1.0862541542
 H        -6.9166103351        1.6804710527        2.5548389350
 H        -7.3733370285        0.4576453140        1.3975581492
 H        -4.4536540469       -7.3095792596        1.6179668649
 H        -5.7375086966       -6.2911027725        1.0561382078
 H        -4.9665543536       -6.0018063186        2.6365247567
 H        -1.5396603804       -5.4228625965        1.6157632085
 H        -2.8069461911       -5.1655082711        3.0526436580
 H        -2.4058175327       -4.0268539100        1.7854136069
 H        -5.3960808053       -6.8759084438       -6.5126500988
 H        -5.6969979256       -6.2776525864       -4.8488907822
 H        -4.8557088087       -7.7856289647       -5.1326307527
 H        -2.4521686413       -7.2663947668       -6.9616117369
 H        -2.3047116225       -7.9406820189       -5.3556806997
 H        -1.3880856009       -6.4899475568       -5.7565644851
 H        -5.6291172435       -0.3872626268       -3.5771937295
 H        -6.4619294648        0.9586673796       -4.4544268513
 H        -4.9976413809        1.3040126467       -3.3389849558
 H        -4.1621572528        1.6173392256       -7.0436862677
 H        -5.3275177863        2.3135729799       -5.9854844941
 H        -5.7112852417        0.8934281078       -7.2009573242
 H         1.5651572502        0.7332066475       -4.1424632598
 H         2.0178075627       -0.6381006678       -3.1075808348
 H         0.3731939347        0.1954644444       -3.1654116528
 H         2.8968973062       -1.7707234755       -5.0200553096
 H         2.3451094059       -1.1584884315       -6.5370559463
 H         1.9004578113       -2.8082921249       -5.8389060138
 H         1.1046321342       -8.4257671666       -2.6925425661
 H        -0.0490517326       -7.1036002836       -2.7545767923
 H         0.8689200207       -7.3588688084       -1.3219614400
 H         4.0508848726       -5.7203855327       -2.8911590111
 H         3.9816640413       -7.4555966962       -3.0968035485
 H         3.4298965971       -6.6377610758       -1.5483621558
 H         0.1583943638       -7.5823816038       -7.9957919470
 H         1.6342626151       -8.4118026666       -8.5778927882
 H         0.3547695740       -8.0256175730       -9.6257416633
 H         3.4773339284       -7.2302387837       -9.6193841158
 H         3.0518984020       -5.8856857756      -10.6578996571
 H         2.4212444674       -7.4224697109      -10.8576209140
 H        -4.6184979691       -2.6296693763      -11.2876183895
 H        -4.0398772447       -1.2294742966      -10.4691594884
 H        -3.6670053910       -2.8693669985       -9.8412783327
 H        -2.8758889809       -4.2086898358      -12.7050451360
 H        -1.9194110465       -3.2078215489      -13.7561381078
 H        -3.6319196771       -2.6851225322      -13.5375567566
 H        -2.1192012216       -1.2098253050      -17.4467085121
 H        -2.9698148784       -1.9484717056      -16.1896191656
 H        -1.4986085045       -0.9814147228      -15.8000871938
 H        -1.6968262495        1.6729280435      -16.1299229017
 H        -3.0571655478        2.4231205457      -16.5859466166
 H        -2.1117746929        1.5232783425      -17.8411332435
 H        -7.3910021063       -2.9304342761      -20.6038920207
 H        -8.6564091049       -2.3781571176      -21.6543826619
 H        -8.5784224070       -1.6676449834      -20.0560225768
 H        -5.7862639048       -2.1575369597      -22.2886647172
 H        -5.4981129869       -0.5706504997      -22.8439709229
 H        -6.9540964578       -1.3593447857      -23.4723205199
 H       -10.2664059299        3.4843850549      -25.0522120790
 H       -10.1340008410        2.1930008727      -26.1832231875
 H        -9.8969208938        3.9619076642      -26.7163455084
 H        -7.2923013055        3.3259197116      -27.6953711010
 H        -7.9215026565        1.7222721420      -27.1099821402
 H        -6.4481496560        2.2274981775      -26.3920947863
 H        -7.7260033469        6.4784520805      -20.8710145523
 H        -7.1085745986        6.1791011465      -19.3897579679
 H        -7.2970536268        4.8444805054      -20.7015887491
 H        -4.2336925083        7.6095545965      -21.7540269394
 H        -5.2980176796        7.9494028788      -20.3764552034
 H        -5.9412697000        8.0351305123      -21.9571523055
 Na       -5.3946782014        2.4542467599      -20.0901564454
 Na       -0.5870404689       -3.4962398922       -7.3392240310
