232

 C        -3.3684579433        6.2866269839      -20.1828419053
 C        -4.7614947920        5.6220825195      -20.1452265656
 O        -5.0367177803        4.6876832356      -19.4474892934
 C        -5.7881893704        6.2451333039      -21.1817656086
 C        -5.6730747713        5.0830186364      -22.3852859034
 O        -5.5820429546        3.8930763562      -22.1871192208
 C        -5.9254844669        5.5042222401      -23.8486979298
 C        -6.0900967892        4.2771670583      -24.7297462998
 C        -7.5975213008        3.9965801582      -24.8180839399
 O        -8.4243578861        4.6583064707      -24.1799786831
 C        -8.0023802547        2.8330667553      -25.6482534095
 C        -8.4090993217        1.5947925412      -24.8335858370
 O        -8.0342567065        0.5257420508      -25.1762133012
 C        -9.2479817812        1.8005929295      -23.5640958716
 C        -9.0461654534        0.6191725629      -22.5083511571
 C        -7.8811220230        0.6001754194      -21.4555930004
 O        -7.2639434350        1.6218284989      -21.1643699708
 C        -7.3398203063       -0.8439443932      -20.9038479072
 C        -6.2127617086       -0.5529096315      -19.7730633700
 O        -5.1561752641       -0.1459000081      -20.1618779869
 C        -6.4262881627       -1.0260029209      -18.2981538915
 C        -5.0657008159       -1.0198199547      -17.6067030682
 C        -4.3397474922        0.3824241164      -17.4047245623
 O        -4.7809223446        1.4459047301      -17.8451618506
 C        -3.0167091823        0.3230692939      -16.6281084631
 C        -3.4744299450        0.1871233304      -15.1678145272
 O        -4.4207560326       -0.4797411448      -14.7950081675
 C        -2.6252636026        0.9936570817      -14.1742894096
 C        -2.7558418214        0.5377128974      -12.7267700534
 C        -1.8461163041       -0.6472725300      -12.2686559953
 O        -0.6358445261       -0.6191025587      -12.4280588282
 C        -2.4645519977       -1.9892794207      -11.6885471116
 C        -1.2397965805       -2.6859119799      -10.9646730433
 O        -1.1442542911       -2.5830420956       -9.7431901518
 C        -0.2191396983       -3.6394532003      -11.8305483485
 C         0.8901662442       -4.3130380023      -10.9310023090
 C         0.3725916971       -5.4230935838       -9.8979120030
 O        -0.7612638158       -5.4738120918       -9.5407577637
 C         1.5143651203       -6.3432593184       -9.2547338497
 C         2.0840857618       -5.7097509723       -7.8696864535
 O         1.8134104658       -4.6217895244       -7.4869081090
 C         3.1308696776       -6.5477081759       -7.0550504596
 C         3.1681409569       -5.9940225676       -5.6144374618
 C         2.0320599037       -6.6622767227       -4.7341889228
 O         1.1543420813       -7.2549527538       -5.2615050658
 C         1.9479842062       -6.4646402198       -3.1943420959
 C         1.8394279470       -4.8297985230       -3.0801583696
 O         2.7995355336       -4.1828021808       -3.4205105728
 C         0.5615025961       -4.2419736385       -2.5514261530
 C         0.2492452893       -2.7180764622       -2.8743325837
 C         0.1585026794       -2.4734103547       -4.3479007413
 O        -0.4325414815       -3.1508317027       -5.1566052886
 C         1.0196184481       -1.2028842655       -4.8096913144
 C         0.1282281688       -0.5561666439       -5.7551624683
 O        -0.0823936953       -1.0676325020       -6.8698426580
 C        -0.6287144732        0.7162169358       -5.5564111814
 C        -2.0103821749        0.7657571086       -6.1373672634
 C        -2.9444400278        0.3024998616       -5.0841148091
 O        -2.5308576431       -0.1458012768       -3.9945274211
 C        -4.5354495808        0.1598890089       -5.2275833597
 C        -4.7929041996       -1.2258526545       -5.8967783321
 O        -5.7908790296       -1.4520535025       -6.6194293304
 C        -3.9217002149       -2.3585802756       -5.4356913245
 C        -4.4096791407       -3.8159785778       -5.8753714889
 C        -3.3495207213       -4.8063056078       -6.1282718831
 O        -2.4342330555       -4.7104068239       -6.9516626337
 C        -3.5014139824       -6.0885057523       -5.2867988268
 C        -3.2126537817       -5.7742696909       -3.8254470442
 O        -2.6806227106       -4.7329817176       -3.4498734915
 C        -3.4399993798       -6.8317057066       -2.7397313803
 C        -3.9281056586       -6.1217753839       -1.4319943836
 C        -3.0116460280       -6.0612430237       -0.1930072865
 O        -1.8290552136       -6.2539125824       -0.3173245678
 C        -3.6465924379       -5.6503863613        1.1513361298
 C        -4.2600122626       -4.1464487449        0.8065857978
 O        -3.7879251271       -3.3798645888        0.0598316814
 C        -5.5559377676       -3.7166679982        1.5663682655
 C        -5.9397948607       -2.3046635023        1.2924193510
 C        -5.0745485484       -1.2148771703        1.9475693445
 O        -3.8969439151       -1.0433043158        1.7168638780
 C        -5.8834254605       -0.2671926878        2.9570622843
 C        -6.7405390417       -1.1510389572        3.9110447153
 O        -6.2193458672       -2.2002053031        4.3466386064
 C        -8.0925799167       -0.6352047847        4.5019940836
 C        -4.8273853610        0.4505171048        3.8709702686
 C        -6.6552672009        0.6562943479        1.9688577588
 C        -4.6759657485       -6.5981186136        1.6683711855
 C        -2.3983193907       -5.3133704453        2.1547435793
 C        -4.9380930778       -6.7114786719       -5.4010821197
 C        -2.5049204617       -7.1536159415       -5.6844975662
 C        -5.2546681540        0.1234760925       -3.7487669167
 C        -5.1563753990        1.2705693481       -6.0914830371
 C         1.4837802466       -0.3035779776       -3.6498470189
 C         2.2378590836       -1.6885684907       -5.6429218427
 C         0.7664669928       -7.2590738628       -2.5489659880
 C         3.2941055082       -6.8601590226       -2.6317718442
 C         1.0058269706       -7.8022187641       -9.1227230644
 C         2.8091171295       -6.4359877961      -10.1582199337
 C        -3.6551509248       -1.8625789532      -10.7150422498
 C        -2.8592811380       -2.7184866490      -13.0400716456
 C        -2.1267704087       -0.8821341939      -16.9431626975
 C        -2.3120405490        1.6043957450      -16.9954303933
 C        -8.4163821175       -1.8014837748      -20.3421329198
 C        -6.5747393773       -1.5203367337      -22.1063308972
 C        -9.3841120598        3.1071802154      -26.4861402618
 C        -6.8990868587        2.3740701842      -26.6640807989
 C        -7.2783921681        6.2188149596      -20.6713829622
 C        -5.4552026355        7.6966310810      -21.6357843956
 H        -3.4015156817        7.3985018511      -20.0349388660
 H        -2.7891337060        6.0187736672      -21.0521631115
 H        -2.7848215098        5.9405415414      -19.3883169120
 H        -5.0656817282        6.1625495999      -24.0543150944
 H        -6.8115830713        6.0974067131      -23.9046342828
 H        -5.4501413938        3.4703009183      -24.2907292645
 H        -5.6552689330        4.5827143615      -25.7338411921
 H       -10.3098527371        1.9961226458      -23.8333523087
 H        -8.9839299333        2.7784313094      -23.1037503884
 H        -8.9153855505       -0.2999149328      -23.1829883399
 H        -9.9711786704        0.4015921086      -21.9199157060
 H        -6.9757561133       -2.0113063004      -18.2832581368
 H        -7.0516155835       -0.3336965274      -17.7366095999
 H        -4.3605871898       -1.5662136564      -18.2560061528
 H        -5.0831780800       -1.6110259762      -16.6628085769
 H        -3.1185985985        1.9729013355      -14.1879304340
 H        -1.5603453625        0.9483886396      -14.5668719901
 H        -3.8086090848        0.1717300034      -12.6285053147
 H        -2.5737061813        1.3834305962      -12.0600699296
 H         0.2245533454       -3.0555003047      -12.6386380209
 H        -0.8355089849       -4.3800535121      -12.3366669133
 H         1.2606245730       -3.5429690181      -10.4219759528
 H         1.6967363174       -4.6210266507      -11.5965860019
 H         4.1775213667       -6.3307750335       -7.6345354323
 H         2.9880324031       -7.6276703716       -7.0920799894
 H         3.0033247698       -4.9254367517       -5.5936252642
 H         4.1602944240       -6.1262250415       -5.1498072904
 H         0.5737758820       -4.2351222941       -1.4629998887
 H        -0.3300114058       -4.7649190605       -2.9502801438
 H         1.0474985873       -2.0941547569       -2.4696353238
 H        -0.6013029366       -2.4345999805       -2.2029242778
 H        -0.1629711771        1.5386925344       -6.0311396846
 H        -0.5286949197        0.9442920605       -4.5295630233
 H        -2.1307456123        0.1549127752       -7.0959942097
 H        -2.3909823725        1.6314944314       -6.5025433510
 H        -3.7956745553       -2.3521707381       -4.3289957699
 H        -2.8577281434       -2.2637506776       -5.7009458718
 H        -4.9040415399       -3.6661315125       -6.8782571357
 H        -5.1914276324       -4.1905020137       -5.2065631291
 H        -2.3213727874       -7.1223590053       -2.5805768991
 H        -3.9957150626       -7.7224200329       -3.0620684613
 H        -4.9721941360       -6.3312332807       -1.1928377947
 H        -3.9299978291       -5.0607077377       -1.6726340061
 H        -5.5031780491       -3.8959766837        2.6828472951
 H        -6.5065892678       -4.2643062546        1.3143145093
 H        -7.0066156508       -2.2217394377        1.5422086351
 H        -5.8524501831       -2.0716647443        0.1856900312
 H        -7.8778403624        0.3349859595        4.9991902402
 H        -8.5524736093       -1.2243447671        5.2408677854
 H        -8.7066396447       -0.3116385425        3.6723717234
 H        -5.3187067387        1.1378896977        4.5872880689
 H        -4.2701857235        1.1948093093        3.3136171581
 H        -4.3300715721       -0.2539256404        4.4785212689
 H        -6.0088732212        0.8842560690        1.1172995382
 H        -6.9893574204        1.5229426895        2.5297909634
 H        -7.5189813858        0.0835259729        1.7419439407
 H        -4.2193559733       -7.4793945383        2.1781661093
 H        -5.4271769239       -6.9553005439        1.0513280155
 H        -5.1337726129       -6.0768878009        2.5843468864
 H        -2.2932390756       -6.1628866790        2.8602233140
 H        -2.5821690262       -4.4061389127        2.7203302290
 H        -1.5233010575       -5.1657818110        1.6021761658
 H        -5.2898356233       -6.8401413609       -6.4279434735
 H        -5.6817999010       -6.2247263269       -4.7852323787
 H        -4.8729811290       -7.7103621918       -5.0099169969
 H        -2.5443284068       -7.1678200977       -6.7817028731
 H        -2.7543833130       -8.0701594604       -5.3144139547
 H        -1.5157773143       -6.8332149192       -5.3962862789
 H        -4.5593285622        0.2417662304       -2.9520528535
 H        -5.5938710448       -0.9020445013       -3.5980692098
 H        -6.0890900697        0.8015421401       -3.8206207305
 H        -5.6818448911        0.8387421153       -6.9800833156
 H        -4.4992957272        2.1192507980       -6.2493870741
 H        -6.0340806013        1.7145587556       -5.4906041376
 H         1.7954249194        0.6192855900       -4.1587319715
 H         2.4240669711       -0.7745213455       -3.3091843903
 H         0.8576097252       -0.1343969350       -2.7403261872
 H         2.7238932493       -2.5382711846       -5.1467672815
 H         3.0656898456       -1.0401751862       -5.8064500679
 H         1.8673415047       -2.0309730631       -6.6620175173
 H         1.1566809710       -8.2383290865       -2.2379126622
 H        -0.0682686059       -7.3583048415       -3.2889336482
 H         0.2721977061       -6.8782127237       -1.6255185840
 H         4.1125251314       -6.5192892586       -3.2897674308
 H         3.4648414209       -7.9225865028       -2.5130107759
 H         3.3184529778       -6.5170533181       -1.5932211196
 H         0.0253343448       -7.8074023352       -8.5989242514
 H         1.7439299133       -8.4185189325       -8.5757363772
 H         0.9490095390       -8.3623166105      -10.0609047219
 H         3.4803881590       -7.1429810667       -9.7337653428
 H         3.4150724158       -5.6028965997      -10.1842118353
 H         2.7666668661       -6.6485312345      -11.2464641449
 H        -4.0550299016       -0.7925932933      -10.8293523507
 H        -3.3769180686       -2.0698152506       -9.6537263151
 H        -4.4619827285       -2.5166864307      -10.8834307575
 H        -3.0194320954       -3.7372659997      -12.8634486249
 H        -2.0439870735       -2.5952988623      -13.7006914221
 H        -3.7959276758       -2.3055527872      -13.4241923233
 H        -2.0037470567       -0.9116014345      -18.0098295551
 H        -2.7287139150       -1.7569568711      -16.6744587152
 H        -1.0919089179       -0.9216204943      -16.5308405880
 H        -1.4392453352        1.6719311195      -16.3340541937
 H        -3.0765854389        2.4427168442      -16.7473975883
 H        -2.0142603233        1.5812679919      -18.0668682108
 H        -7.9686597461       -2.7157642034      -19.8973629101
 H        -9.0546586763       -2.0114024411      -21.1098308203
 H        -9.0051319398       -1.1970376751      -19.5689225840
 H        -6.5385125674       -2.5014122141      -21.7859533728
 H        -5.6389183512       -0.9601359917      -22.3829939462
 H        -7.1096335115       -1.4749143284      -23.0260478271
 H       -10.2213920506        3.4578239979      -25.8597476690
 H        -9.5229426731        2.2187240224      -27.0579949820
 H        -9.1813804154        4.0468184707      -27.0865854123
 H        -6.3526124654        3.2063386434      -27.1843426899
 H        -7.3568672260        1.5587518735      -27.2543271519
 H        -6.0680659049        1.8922376412      -26.1613017855
 H        -7.8387308232        5.5823294270      -21.2741205811
 H        -7.7025027132        7.2194308954      -20.7890601584
 H        -7.3407860585        5.7125212041      -19.7364570452
 H        -4.5877607897        7.9173703369      -22.2783445478
 H        -5.5041791804        8.3199204629      -20.7222883337
 H        -6.2764119080        8.0603730280      -22.2234761512
 Na       -5.3941293335        2.2121773861      -19.9786087069
 Na       -0.6230256575       -3.4472860543       -7.5951081160
