232

 C        -3.5662993710        6.6440960313      -19.8559425219
 C        -4.7505708568        5.7142569288      -20.1560861737
 O        -4.8099835313        4.6870194472      -19.5448138838
 C        -5.8221116107        6.0992966727      -21.2477529913
 C        -5.8300854622        4.9823590784      -22.4002401222
 O        -5.9571961697        3.8195476615      -22.1563658652
 C        -5.8139819347        5.4549226377      -23.8236328010
 C        -6.2008876844        4.4274004255      -24.9398963905
 C        -7.6231493054        3.7901565378      -24.9170891070
 O        -8.5988116332        4.3261993664      -24.4022266444
 C        -7.9429722099        2.5026226222      -25.7844836039
 C        -8.3356493726        1.3473539617      -24.8127486462
 O        -8.1277928711        0.1991435618      -25.0447311259
 C        -9.0544020460        1.7622800808      -23.4983525035
 C        -9.1560846329        0.5507246388      -22.6056906514
 C        -7.9187370461        0.4819224948      -21.6129158705
 O        -7.3946117189        1.5316830028      -21.2539171168
 C        -7.5277715973       -0.7962813151      -20.8980416251
 C        -6.3771625492       -0.4175188389      -19.8662611080
 O        -5.4748938895        0.2820832414      -20.2729933986
 C        -6.4850699853       -0.7514066429      -18.4125080160
 C        -5.1085804963       -0.8318516306      -17.5311976335
 C        -4.3934454216        0.5265799420      -17.4023754682
 O        -4.8312455967        1.5150165833      -17.9194920857
 C        -2.9186627850        0.5101126651      -16.8046161370
 C        -3.1087254290        0.2870582364      -15.2519450202
 O        -3.8495525145       -0.5943725779      -14.9160993424
 C        -2.3423069804        1.1081531543      -14.1633327283
 C        -2.7468167656        0.5440660070      -12.8100130921
 C        -1.7734070156       -0.5713961798      -12.3395021468
 O        -0.5476373113       -0.4405448407      -12.4190730249
 C        -2.3775775767       -1.8555775501      -11.5860826433
 C        -1.3149140308       -2.6509749235      -10.8233108505
 O        -1.3287491229       -2.7356582930       -9.6183284226
 C        -0.3904966832       -3.5364667412      -11.6367677881
 C         0.8682410755       -4.1548778022      -10.8446105484
 C         0.4259165557       -5.3376952426       -9.9639430914
 O        -0.7038418151       -5.3601218224       -9.5684137242
 C         1.5252564832       -6.1943868465       -9.3483426945
 C         1.9397239403       -5.6019254619       -7.9815226398
 O         1.4634454917       -4.6605044775       -7.4250519804
 C         3.1284564506       -6.3245828069       -7.3476849988
 C         3.2495614229       -6.2473212732       -5.8292658443
 C         1.9715482554       -6.7671115646       -4.8541368595
 O         1.0741466183       -7.3424872211       -5.3744027506
 C         1.9450784410       -6.4854900210       -3.2596149537
 C         1.7124654916       -4.9086459023       -3.1839837427
 O         2.6926571021       -4.2259163325       -3.0757881359
 C         0.2578845751       -4.3040088617       -3.0505521933
 C         0.2665225976       -2.7595668178       -3.0575153359
 C         0.2697974972       -2.3664728940       -4.4498746461
 O        -0.3164823971       -3.0699722044       -5.2689537793
 C         1.0330984810       -1.1492986727       -4.9849575377
 C         0.1747603486       -0.4953935476       -6.1470997513
 O         0.0451346090       -0.9917114520       -7.2570057156
 C        -0.5024695177        0.8895442387       -5.8902546684
 C        -2.0075634194        0.9554548659       -5.9195529789
 C        -2.7464935885        0.2290781649       -4.8480227467
 O        -2.2361561542        0.0494041850       -3.7445169780
 C        -4.3572416197       -0.0831521555       -5.1054844174
 C        -4.5839718456       -1.3066693893       -5.9172452468
 O        -5.3332145367       -1.3052993524       -6.9206408567
 C        -3.7851365038       -2.5957653583       -5.5534403120
 C        -4.3694297934       -3.9452826588       -6.1602805868
 C        -3.2480096547       -4.9673331713       -6.2564038434
 O        -2.1493769774       -4.7258810900       -6.7958131333
 C        -3.4317361209       -6.2824054270       -5.3300493619
 C        -3.2292015488       -5.7913698942       -3.8448967249
 O        -2.8330417657       -4.6669939585       -3.5980155379
 C        -3.4067019326       -6.8072555393       -2.6282242780
 C        -4.1025427539       -6.3924717108       -1.2801645942
 C        -3.0180636087       -6.1285624464       -0.1316025115
 O        -1.8742956858       -6.4665614176       -0.3253071448
 C        -3.5251151660       -5.6220062049        1.2513424969
 C        -4.2143237933       -4.0894888192        1.1423047134
 O        -3.9367634477       -3.4542935490        0.1945232010
 C        -5.2865119080       -3.7568070739        2.1509966830
 C        -6.0465078747       -2.5302664878        1.6747697496
 C        -5.2720198678       -1.3076004819        2.1346953165
 O        -4.1512003710       -1.0912103642        1.7822978721
 C        -5.9615003305       -0.2316592160        3.2233303468
 C        -6.7392027677       -1.1770909578        4.3105687617
 O        -6.0320677616       -2.1476636526        4.6827189257
 C        -8.1725483316       -1.0418472929        4.7046027626
 C        -4.8302585591        0.6483790647        3.7675684597
 C        -7.0179148095        0.7400354581        2.5374155498
 C        -4.5687330693       -6.6923541222        1.6763562339
 C        -2.3226703172       -5.4984215563        2.2653500185
 C        -4.8107537590       -6.9327038119       -5.4159751058
 C        -2.3173988586       -7.3471781918       -5.7328684889
 C        -5.1679301579       -0.2087888814       -3.6041462518
 C        -5.0393672831        1.1574988938       -5.7783651881
 C         1.5550211175       -0.1031681890       -3.9626060291
 C         2.3530337241       -1.8281247233       -5.6668263572
 C         0.7568705564       -7.2848419534       -2.6550011217
 C         3.2838326750       -6.8620275078       -2.6068016099
 C         0.9778477478       -7.5988928104       -9.1578305313
 C         2.7956513105       -6.2776265768      -10.1598531491
 C        -3.4824919595       -1.4557265542      -10.6354611961
 C        -2.9405429413       -2.7828698897      -12.6785603146
 C        -2.1875376291       -0.7140911245      -17.3546012286
 C        -2.1412482473        1.7861419948      -17.0747251538
 C        -8.8686815631       -1.2575798945      -20.1769736326
 C        -6.9850100713       -1.7402879318      -21.9208023473
 C        -9.2618699195        2.8935471208      -26.6458089014
 C        -6.8003062559        2.0016563867      -26.7620826154
 C        -7.2685133113        6.0371363596      -20.4414296491
 C        -5.5485540419        7.5295768022      -21.7947632967
 H        -3.9628230861        7.4901601301      -19.2681858387
 H        -2.9749037172        6.9989926249      -20.7518982644
 H        -2.8447432126        6.1878789186      -19.2492557234
 H        -4.8544360542        5.8459207648      -24.0713368435
 H        -6.5014397957        6.2879615956      -23.8878015882
 H        -5.4647490511        3.6579435058      -24.9871581124
 H        -6.0605594391        5.0611775956      -25.7413152028
 H        -9.9693687903        2.3442973432      -23.5335222756
 H        -8.4876958988        2.5217894443      -22.9155706551
 H        -9.1669073899       -0.4268755037      -23.0772403729
 H       -10.0608213367        0.5926342234      -21.9679526962
 H        -7.2206001889       -1.5877045587      -18.1625322146
 H        -7.0787903316        0.1180440363      -18.0899054106
 H        -4.4574248046       -1.6700579641      -17.9901231790
 H        -5.3421112131       -1.1807694781      -16.5241137828
 H        -2.6892371313        2.1056788315      -14.2473912035
 H        -1.2851143448        1.0088610147      -14.4130146357
 H        -3.7239826031        0.0501854332      -12.8748516487
 H        -2.8002367824        1.3093248267      -12.0737785903
 H        -0.1474550697       -2.9825772841      -12.5480608813
 H        -1.0261417163       -4.3671353992      -12.0481307257
 H         1.3446507609       -3.4182875698      -10.1841069307
 H         1.6205294902       -4.3438301346      -11.6494530719
 H         4.0869258047       -5.7867209108       -7.8911124094
 H         3.1432684610       -7.3800059000       -7.6011506948
 H         3.5951105803       -5.2095508061       -5.5336537479
 H         4.0080383471       -6.9851927632       -5.5341148372
 H        -0.1284518427       -4.6372546733       -2.0324995114
 H        -0.4677499777       -4.6236493661       -3.8324742415
 H         1.2203454667       -2.4727891736       -2.6099318590
 H        -0.4859824153       -2.1861671288       -2.4889517778
 H         0.0495660481        1.4940318910       -6.6329838160
 H        -0.1460911375        1.3995973359       -4.9299973641
 H        -2.5298048799        0.7186632207       -6.8410662214
 H        -2.4066008586        1.9698167862       -5.8134631163
 H        -3.5997875637       -2.6364928125       -4.4593325514
 H        -2.7160596482       -2.5145518585       -5.8019929124
 H        -4.7883395073       -3.5834505199       -7.0306527140
 H        -5.1429758029       -4.3164781456       -5.5320189597
 H        -2.3605143811       -6.9346629290       -2.4906784748
 H        -3.7649930898       -7.7386349517       -2.9912157496
 H        -4.9072024256       -7.1071377791       -1.0517678719
 H        -4.5517801265       -5.3464241124       -1.4099996426
 H        -4.9536623499       -3.6589987448        3.1303451358
 H        -5.9885611422       -4.5927744315        2.2757769663
 H        -6.9825568843       -2.4680286296        2.1594694276
 H        -6.2006189329       -2.5605936614        0.6174534039
 H        -8.6679185888       -0.0531032527        4.8312018817
 H        -8.3524678977       -1.7080525650        5.5091832179
 H        -8.5912513678       -1.4662705980        3.7308184602
 H        -4.9012428526        1.3286599214        4.6421253451
 H        -4.4789584488        1.1018551676        2.8006967447
 H        -4.0461529718        0.0011456081        4.1029173211
 H        -6.3895051395        1.4722059551        1.9733576150
 H        -7.6395791271        1.2428371639        3.2681960587
 H        -7.5533846665        0.1036938824        1.8759407617
 H        -4.2175569847       -7.6945841507        1.4263931920
 H        -5.5817373919       -6.6887581801        1.3274557196
 H        -4.6543666946       -6.8004889055        2.7982604798
 H        -1.7167183540       -6.4207217442        2.5176334128
 H        -2.6530006742       -5.1284508423        3.2352867084
 H        -1.8083752089       -4.6642558423        1.8253860478
 H        -5.1444431528       -7.0678189963       -6.4785041095
 H        -5.5741045612       -6.2859847459       -4.8908374566
 H        -4.8961033305       -7.8370030955       -4.9180946433
 H        -2.8209010629       -8.1045956212       -6.3755777665
 H        -2.0017585925       -7.8366012383       -4.8235469251
 H        -1.4287497817       -6.8330574082       -6.2658607731
 H        -5.2664918728        0.8176511101       -3.2226478287
 H        -4.5299938242       -0.6279997294       -2.8478905304
 H        -6.1470158341       -0.7774661734       -3.7782252711
 H        -5.8574805312        0.8730015323       -6.3282669673
 H        -4.3336255832        1.6612586863       -6.3995356199
 H        -5.2185787315        1.9034120279       -4.9955899651
 H         2.0906795891        0.6858335417       -4.4613863678
 H         2.2559758674       -0.6250159304       -3.3215666738
 H         0.7560466812        0.1621272307       -3.3373778809
 H         3.1793355768       -2.0975141033       -5.0442540472
 H         2.7255048282       -1.0726177191       -6.3790138800
 H         2.1497489972       -2.5997441345       -6.3768950661
 H         0.6945638021       -8.2537818891       -3.0268768660
 H        -0.1622311503       -6.8360048310       -2.9159451327
 H         0.7806592489       -7.3147992790       -1.5271478880
 H         4.0088394240       -6.1083532963       -2.7420903681
 H         3.7126863355       -7.8122644609       -3.0726362966
 H         3.0959297982       -7.1502737469       -1.6029301689
 H        -0.0159241778       -7.4995941947       -8.6849834261
 H         1.5721190025       -8.2489670180       -8.4788288876
 H         0.8819844458       -8.0938039942      -10.0695693363
 H         3.4505088964       -7.0795441799       -9.8867979889
 H         3.5170239356       -5.5219774439      -10.0787606397
 H         2.6621319374       -6.3297990471      -11.2774331661
 H        -4.3631450074       -1.0372477626      -11.1274172562
 H        -3.1433380976       -0.8480716105       -9.8228647994
 H        -3.7609536904       -2.3373328572      -10.1433907853
 H        -3.5294215177       -3.5768755320      -12.2629548341
 H        -2.0949177826       -3.0976110258      -13.3180592332
 H        -3.7627048187       -2.2127866362      -13.2617421376
 H        -1.9711270902       -0.7981812623      -18.4169751217
 H        -2.7516333832       -1.5785510254      -16.9747262496
 H        -1.2422547419       -0.8240919987      -16.8611464426
 H        -1.2096094531        1.8165627590      -16.6313471144
 H        -2.8790078085        2.5945289647      -16.8536312279
 H        -2.0576858673        1.8137175848      -18.1428479022
 H        -8.6202538506       -2.1562481174      -19.6343510595
 H        -9.7125242634       -1.3035112710      -20.8106186231
 H        -9.0748977718       -0.5202650504      -19.3595947171
 H        -6.3529031784       -2.5279104875      -21.5493019213
 H        -6.5431930082       -1.0746130805      -22.7907083550
 H        -7.7666335908       -2.3765691369      -22.3782254718
 H        -9.9547552158        3.5415527830      -26.1450063665
 H        -9.6545458840        1.9347632196      -27.0466455879
 H        -8.9135187771        3.4596124097      -27.5490290594
 H        -6.7501967777        2.7703874807      -27.5614349844
 H        -7.1306534689        1.0572328392      -27.1430873908
 H        -5.8238466804        1.9785504550      -26.4931562642
 H        -7.8489506581        5.1798357631      -20.8738938446
 H        -7.7337520868        7.0974371522      -20.3191977323
 H        -6.9664174557        5.6917303196      -19.4216996247
 H        -4.5953122037        7.5495454840      -22.3169695774
 H        -5.5118238821        8.3185388735      -21.0181897021
 H        -6.2838418188        7.7909834997      -22.5336078272
 Na       -5.7537707332        2.7296309013      -20.1238955914
 Na       -0.4428827715       -3.2934240101       -7.5811141593
