232

 C        -3.8778005927        6.8724424483      -19.7909250010
 C        -4.7458342803        5.8012491096      -20.3037672557
 O        -4.6265195532        4.6567333859      -19.8827362317
 C        -5.8699393280        6.0040640736      -21.3006334186
 C        -5.8513937563        4.9222266411      -22.4897252889
 O        -5.8940720126        3.7874767978      -22.1572096280
 C        -5.9827920769        5.4477732517      -23.9160845820
 C        -6.0934316347        4.2835490566      -24.9108588142
 C        -7.5261549504        3.7448400939      -24.9845955890
 O        -8.4636405169        4.4067140781      -24.5730663236
 C        -7.8622478316        2.3610950244      -25.7620681633
 C        -8.3298608724        1.2136063925      -24.8186267040
 O        -7.8836613740        0.1153273379      -24.9296541611
 C        -9.3751215017        1.4942666600      -23.7376092706
 C        -9.3811496426        0.3964636774      -22.6374575372
 C        -8.3537346336        0.5972940158      -21.4485459362
 O        -8.0259880714        1.7316499554      -21.2169481648
 C        -7.7982819696       -0.6416536184      -20.6197499076
 C        -6.4950125985       -0.1969451879      -19.8647784358
 O        -5.4728601660        0.1673699948      -20.4909548585
 C        -6.5032062241       -0.3551801467      -18.3205222842
 C        -5.1193869753       -0.5601018998      -17.7394391850
 C        -4.2713494506        0.7520208272      -17.6422704519
 O        -4.7521104157        1.7939534250      -18.0063868391
 C        -2.9139007491        0.6951762665      -16.9202637074
 C        -3.0954455471        0.1121105169      -15.4111552058
 O        -3.6944774625       -0.9006090191      -15.2672069563
 C        -2.2658922771        0.9037192996      -14.3653687680
 C        -2.5207630668        0.6778171823      -12.8741192741
 C        -1.8103171995       -0.5430099709      -12.3700243457
 O        -0.5873817953       -0.6704904595      -12.5978688275
 C        -2.5487620893       -1.6835708230      -11.5688237111
 C        -1.4058990086       -2.4522580303      -10.6733052653
 O        -1.3951607550       -2.2883364156       -9.4731133608
 C        -0.2757309074       -3.2224346889      -11.5080445093
 C         0.8791435084       -3.8001961172      -10.6805693627
 C         0.4992838144       -5.1047608774       -9.8020816790
 O        -0.6816050332       -5.3778895922       -9.5965695562
 C         1.5509883664       -6.0792366082       -9.3624901842
 C         1.9693898767       -5.6349082605       -7.7952667492
 O         1.3131416228       -4.8643723577       -7.1264793514
 C         3.1946416193       -6.3729786692       -7.2376728421
 C         3.2426841257       -5.9546380839       -5.7423264253
 C         1.9979981953       -6.6191396351       -4.9721978355
 O         1.1284827239       -7.1976584899       -5.5878934503
 C         1.8595971319       -6.5355772615       -3.4157750061
 C         1.6281658010       -5.0341080535       -3.1148296898
 O         2.5965747196       -4.3298004404       -3.2238171499
 C         0.2548816942       -4.3359182540       -2.8804796690
 C         0.2326448372       -2.7428555351       -3.1855741163
 C         0.2480975010       -2.3816562672       -4.6486392190
 O        -0.4776657822       -3.0210188326       -5.4109634783
 C         1.0796671485       -1.1336464570       -5.2869970295
 C         0.1859063874       -0.3709250599       -6.2803195133
 O        -0.1860861769       -0.8683603781       -7.3004160896
 C        -0.4876751344        1.0409460052       -5.9602209402
 C        -1.9590362239        0.7976923348       -6.1602061419
 C        -2.5767710863        0.1582529295       -4.9579319215
 O        -1.9053257416       -0.0909696402       -3.9560431983
 C        -4.1371970800       -0.1625390840       -4.9632245245
 C        -4.2642756744       -1.2616736967       -5.9595325668
 O        -4.6650519777       -1.1504650222       -7.1306661014
 C        -3.4317765097       -2.5685415055       -5.5655599219
 C        -3.9068737229       -3.8417293739       -6.2870926836
 C        -2.9631608409       -5.0253008478       -6.1633466746
 O        -1.8926692074       -5.0514614799       -6.7943806714
 C        -3.2896991787       -6.3059860423       -5.2894783604
 C        -3.2588506754       -5.8804192766       -3.7676217355
 O        -3.0806737120       -4.7366129131       -3.4407514429
 C        -3.3731889364       -6.8589086678       -2.5308318899
 C        -3.9413187151       -6.1422586701       -1.2702333023
 C        -3.0031877091       -6.2396432067       -0.1312062772
 O        -1.8230256453       -6.4812451851       -0.3572738063
 C        -3.5229064175       -5.8113763281        1.2317851476
 C        -4.3234768837       -4.3408769271        1.0743095887
 O        -4.2522803296       -3.8043667509       -0.0126013926
 C        -5.0694401852       -3.8619959234        2.2787328458
 C        -5.9078845788       -2.6194876005        1.9474993383
 C        -5.3090715998       -1.2615606141        2.3584377923
 O        -4.4433513370       -0.8425980169        1.6548504179
 C        -6.0336594192       -0.3956363737        3.4323388301
 C        -6.5328567332       -1.2665115938        4.6241142226
 O        -5.7911420573       -1.9169604868        5.3535597408
 C        -8.0022584751       -1.2321275983        4.9795769925
 C        -5.2346708206        0.6921404433        4.2571368846
 C        -7.1878754166        0.3199278344        2.7378338296
 C        -4.4386545262       -6.9387244718        1.7500447274
 C        -2.3340735154       -5.5526854966        2.2852773353
 C        -4.7902226137       -6.8867778607       -5.5732572034
 C        -2.2039604550       -7.4181917347       -5.4416388333
 C        -4.6769685699       -0.6361813808       -3.5500003768
 C        -5.0071539972        1.0641562672       -5.4216424955
 C         1.4601577200       -0.2596034525       -4.0157296852
 C         2.3847834393       -1.6014782833       -5.9219610277
 C         0.7378251208       -7.4120480236       -2.8967348367
 C         3.1542192063       -7.0176824052       -2.7639164453
 C         0.7636858767       -7.4408950578       -9.1123474949
 C         2.7976070073       -6.2468702454      -10.2213338384
 C        -3.5340427312       -1.0301767336      -10.5764416895
 C        -3.3573939653       -2.5361192084      -12.5210481589
 C        -2.0989156394       -0.3703493771      -17.6279618616
 C        -2.2115150870        2.0344549372      -17.0430149709
 C        -9.0079735898       -1.0835376311      -19.7440526566
 C        -7.2945052038       -1.7109950772      -21.6175762199
 C        -9.1240130508        2.5696833776      -26.8079480053
 C        -6.6599053818        2.0255387404      -26.6774945930
 C        -7.2449897107        5.6847421722      -20.5382240964
 C        -5.7871289968        7.3943410298      -21.9528687359
 H        -4.4157469139        7.6912105862      -19.3918948178
 H        -3.2087380464        7.2131617085      -20.6454453812
 H        -3.1939608961        6.5089732710      -19.0597299360
 H        -5.0628598405        6.0966103480      -24.0375653640
 H        -6.9229575968        6.1316533175      -23.9396989367
 H        -5.4144818997        3.4540035304      -24.5025771817
 H        -5.7770295292        4.5552464491      -25.9275033102
 H       -10.3750921177        1.3659790525      -24.1419991436
 H        -9.4655448802        2.5383936417      -23.4593795156
 H        -9.3389260859       -0.6030806461      -23.0721446677
 H       -10.2616556454        0.3914321949      -21.9542293341
 H        -7.1316126820       -1.1712047962      -18.0614285700
 H        -6.9846666936        0.4470622379      -17.8263862545
 H        -4.6279628023       -1.3036532149      -18.3649121054
 H        -5.2518356893       -0.9957128790      -16.8152228431
 H        -2.4568215798        1.9890007320      -14.6752224038
 H        -1.2219658753        0.7011033999      -14.6365638727
 H        -3.5687061277        0.5888265039      -12.5484032045
 H        -2.1175829066        1.5731203038      -12.3260379182
 H         0.0303157858       -2.6178204231      -12.3492821748
 H        -0.7907799695       -4.0793384919      -11.9609960640
 H         1.2743797856       -2.9133509799      -10.0232532845
 H         1.7121707755       -3.9003475852      -11.3689266237
 H         4.1271777444       -6.0593074136       -7.6302482283
 H         3.0644143807       -7.3327949107       -7.4272595038
 H         3.1255002383       -4.8654854747       -5.7149843408
 H         4.1735272944       -6.2258560209       -5.3372177404
 H        -0.0918437775       -4.4619224984       -1.8722509468
 H        -0.5113513610       -4.7205207077       -3.4746771019
 H         0.9204516815       -2.2539947352       -2.4970064880
 H        -0.7818981841       -2.4350898959       -2.9036225498
 H        -0.1233120331        1.8207279917       -6.6372371791
 H        -0.2693801291        1.3769071744       -4.8593777954
 H        -2.3039481171        0.2219708072       -7.0021287291
 H        -2.4808530903        1.8623054130       -6.2522950531
 H        -3.0898090625       -2.8137683539       -4.5613485644
 H        -2.4675449720       -2.2607191537       -5.9910098375
 H        -4.1500768724       -3.7208082918       -7.3904243414
 H        -4.8940866609       -4.0368796038       -5.6893558880
 H        -2.3314104551       -7.1912122241       -2.2548082591
 H        -3.9301643094       -7.7539881838       -2.9499923976
 H        -4.9069376864       -6.4483827478       -1.0023442622
 H        -3.9397762102       -5.0684402160       -1.4158365893
 H        -4.4657732675       -3.7229235015        3.1733280439
 H        -5.7108175421       -4.7142069763        2.6074179082
 H        -6.8655502948       -2.6269946452        2.5583235657
 H        -6.1620142882       -2.6273380136        0.8522404422
 H        -8.2915178664       -0.2269103516        5.2284612297
 H        -8.2070661614       -1.9253776168        5.7371595610
 H        -8.6061547764       -1.5348042068        4.0854130105
 H        -6.0332085521        1.1924582149        4.7833843945
 H        -4.6365803506        1.3547667737        3.6630348276
 H        -4.5878286857        0.3214857211        5.0331607982
 H        -6.7715672596        0.7505371510        1.8081285402
 H        -7.4566035786        1.0998263581        3.4192664701
 H        -7.9544654788       -0.3934006009        2.4271772905
 H        -4.1055798960       -7.8775597578        2.0619440872
 H        -5.1785637936       -7.1963521737        0.9597632163
 H        -5.1049374681       -6.5995236229        2.5103667030
 H        -1.5074405812       -6.2724429318        2.1352197515
 H        -2.6216789630       -5.6925799860        3.2955977907
 H        -1.9261391862       -4.5413607195        2.0978255128
 H        -4.8011550555       -7.0952448656       -6.6518456650
 H        -5.6484629943       -6.1962357003       -5.4640840780
 H        -5.0444168914       -7.7742221417       -5.0905118360
 H        -2.0379013340       -7.5830410606       -6.4566948349
 H        -2.5467524202       -8.2887273490       -4.9360752022
 H        -1.3073813296       -6.9997324833       -4.9639210341
 H        -5.5439102854       -0.0150480885       -3.2626353537
 H        -3.9008423609       -0.5639681719       -2.8213763828
 H        -5.0379606072       -1.7397068217       -3.4806080981
 H        -5.6899298119        1.2961004571       -4.6356547494
 H        -5.6833061934        0.8186808874       -6.3216195527
 H        -4.2639843648        1.9020172383       -5.6121578184
 H         2.1250121479        0.5954806318       -4.3228363129
 H         2.0739333737       -0.9062232725       -3.3419085505
 H         0.5664581278        0.0414725305       -3.5017878101
 H         2.8310927491       -2.3078601062       -5.2166150241
 H         3.1460180361       -0.7715351644       -6.1178754103
 H         2.3533446709       -2.0520776741       -6.8671727260
 H         0.8535493378       -8.4668960205       -3.0354773329
 H        -0.1788334637       -7.2197522404       -3.4484762075
 H         0.5725473641       -7.0926744928       -1.7884048161
 H         3.9669800246       -6.4665170660       -3.1649979076
 H         3.2562646052       -8.1480648885       -3.0838836240
 H         3.1497805647       -6.8835113375       -1.6750193206
 H         0.0251416456       -7.3668764227       -8.2916293016
 H         1.4466753277       -8.2613398489       -8.8168290602
 H         0.2293459604       -7.6709671207       -9.9912087472
 H         3.5800031810       -6.9414381932       -9.8752182195
 H         3.3596481979       -5.3549802043      -10.5458441437
 H         2.5071849445       -6.7537564111      -11.1676804227
 H        -4.5647883356       -1.2663585728      -10.8797995751
 H        -3.4385811700        0.0650781910      -10.5729091334
 H        -3.3976544864       -1.3828067315       -9.5131528190
 H        -3.7952989866       -3.3978038205      -12.0684786087
 H        -2.8376237757       -2.7601743313      -13.4481976782
 H        -4.2324937371       -1.9214501712      -12.9002061609
 H        -2.1061026313       -0.2011392647      -18.7308926336
 H        -2.2993807943       -1.4441581583      -17.4415391381
 H        -1.1034205042       -0.2652608235      -17.3118862435
 H        -1.2265370515        1.9001190018      -16.7126629545
 H        -2.8021051955        2.8122775449      -16.5375557312
 H        -2.2462079031        2.2974992796      -18.1038406420
 H        -8.8613823739       -2.0313473149      -19.2377048376
 H        -9.9225599759       -1.1307422802      -20.3761369282
 H        -9.1768054442       -0.3189852575      -18.9952703429
 H        -7.1555719531       -2.7152976296      -21.2488457025
 H        -6.2565252916       -1.4111878121      -22.0429356716
 H        -8.0433519004       -1.8510509031      -22.3979723757
 H        -9.9614776938        2.6545322334      -26.2088904121
 H        -9.1959313022        1.6095818523      -27.4134505311
 H        -9.0218113906        3.3669634950      -27.5267995709
 H        -6.4721659638        2.8297852680      -27.4863549105
 H        -6.9428881361        1.1325654728      -27.2830213098
 H        -5.7174965777        1.8523229316      -26.1560138451
 H        -7.9882714241        5.7060792409      -21.2894738963
 H        -7.2646799016        6.4954357856      -19.8119304300
 H        -7.1538413644        4.8800690316      -19.9184742168
 H        -4.8036189462        7.5541378136      -22.3546616409
 H        -5.7682485445        8.1184660541      -21.1165238914
 H        -6.6555424152        7.5323242894      -22.6204307633
 Na       -5.8924709442        2.6530071097      -19.9353719222
 Na       -0.4976318115       -3.5482789818       -7.7156801984
