232

 C        -3.9045518038        6.8529135555      -19.8354451187
 C        -4.7552492877        5.6810423628      -20.3603509725
 O        -4.5784831318        4.5321350049      -19.9808847047
 C        -5.9916438912        6.1023685946      -21.3572797280
 C        -5.8623389912        4.8752199609      -22.4717321496
 O        -5.7143206262        3.7275084932      -22.0873659690
 C        -5.8053765738        5.2021148995      -23.9386924697
 C        -6.1840991376        4.1093405989      -24.8954488949
 C        -7.7224549923        3.7171556568      -25.1031926269
 O        -8.5985933557        4.3752221167      -24.5464602574
 C        -7.8556710601        2.3591685023      -25.8376773259
 C        -8.2175036300        1.1681693573      -24.7680362606
 O        -7.7136265924        0.0674844444      -24.7852124701
 C        -9.4358726726        1.4233473454      -23.8412844697
 C        -9.5097342167        0.4094681798      -22.6613579439
 C        -8.4442927903        0.6578479984      -21.4633307510
 O        -8.1101647881        1.7897138935      -21.0681273812
 C        -7.9323660202       -0.5648936175      -20.6650453493
 C        -6.6087041606       -0.1582215083      -19.7986460614
 O        -5.6394911555        0.1434922072      -20.4754892892
 C        -6.5100591123       -0.2941471432      -18.3025540398
 C        -5.0484309599       -0.4970139644      -17.8474458633
 C        -4.3625387558        0.8460737485      -17.6342813040
 O        -4.7165249306        1.9035912340      -18.1102750753
 C        -2.9270127124        0.7863875840      -16.9187531805
 C        -3.0611762784        0.2316436018      -15.5272544113
 O        -3.5574642774       -0.8857978090      -15.3128839025
 C        -2.2022751197        0.8705912118      -14.4693377825
 C        -2.6551634135        0.6056748113      -13.0368318695
 C        -1.7837967025       -0.5540198072      -12.4547139707
 O        -0.6413092669       -0.6700893685      -12.7723165266
 C        -2.5104876851       -1.5483084027      -11.5011125050
 C        -1.4044974044       -2.3509907300      -10.7109141185
 O        -1.3789308926       -2.2699365492       -9.4920704405
 C        -0.3468033794       -3.2040240045      -11.3953624949
 C         0.7605344189       -3.7423667157      -10.4462599011
 C         0.3863558496       -4.9994857909       -9.8323206061
 O        -0.7761533128       -5.2245964751       -9.5739507917
 C         1.5308943837       -6.0479995588       -9.3011252821
 C         1.9061748803       -5.6188900865       -7.9113011825
 O         1.3070968291       -4.7903175308       -7.3129570062
 C         3.1011812414       -6.3204349960       -7.2189226902
 C         3.2433700260       -6.0087889448       -5.6859803002
 C         2.0017330274       -6.6210862493       -5.0107287897
 O         1.1738800265       -7.1689409873       -5.6773206688
 C         1.8712147351       -6.5022980370       -3.4304800568
 C         1.7159782485       -4.9223893093       -3.1859955466
 O         2.6882024152       -4.2001490110       -3.3137515559
 C         0.2811694507       -4.3622448949       -2.9422198773
 C         0.1605698774       -2.7915475438       -3.2076875807
 C         0.2028575241       -2.4598610151       -4.6731882198
 O        -0.4261155469       -3.0832118838       -5.5056818615
 C         1.0507734842       -1.1369177089       -5.1937821252
 C         0.1422562047       -0.4287740016       -6.2677087449
 O        -0.1626701080       -1.0381807523       -7.2751654185
 C        -0.4248358229        0.9823283334       -5.9881499246
 C        -1.9790025152        0.9198785651       -6.1956107213
 C        -2.5676429918        0.2193998587       -4.9172270565
 O        -1.8264698186       -0.1980994859       -4.0744801656
 C        -4.1392543522       -0.1730354829       -4.8419797812
 C        -4.0624958058       -1.3600312563       -6.0687245230
 O        -4.5063697910       -1.1555831819       -7.1887016791
 C        -3.2467325528       -2.6408130357       -5.6658804824
 C        -3.8318025100       -3.9132919386       -6.3055345181
 C        -2.8737395844       -5.1136714865       -6.1449437177
 O        -1.8578833862       -5.1835567991       -6.7984207322
 C        -3.2678821791       -6.2986773229       -5.2357752836
 C        -3.3740934494       -5.7990714202       -3.7452810537
 O        -3.0999880062       -4.6179995881       -3.5106171014
 C        -3.4723241920       -6.8936314722       -2.6328996609
 C        -3.9894827442       -6.2743400605       -1.3855215558
 C        -2.8728361438       -6.1456553311       -0.1581367561
 O        -1.7512448212       -6.5483906856       -0.2184145203
 C        -3.5413626679       -5.7544388424        1.2370700376
 C        -4.3263007012       -4.4240139427        1.0788980733
 O        -4.3906910903       -3.8762006885        0.0426335227
 C        -4.9954017514       -3.9235213206        2.3620873943
 C        -5.9057681908       -2.6465768960        2.0887048838
 C        -5.2573120725       -1.2305355228        2.4271859851
 O        -4.4552854083       -0.7354787640        1.6719421951
 C        -6.0955802868       -0.3681075469        3.6184387373
 C        -6.5616938955       -1.3976379653        4.7500897595
 O        -5.7306596578       -1.9536567079        5.4814755130
 C        -8.0660987861       -1.3533534746        5.1783548504
 C        -5.2095516428        0.7598586471        4.2056425368
 C        -7.2111625789        0.1805585284        2.7288136014
 C        -4.3789954198       -6.9133929772        1.6990138967
 C        -2.4102223796       -5.5373413939        2.3262457556
 C        -4.6747364001       -6.8019591019       -5.6412662318
 C        -2.2671372977       -7.4051653953       -5.4175466067
 C        -4.5010998709       -0.6755044493       -3.4739445588
 C        -5.0444531361        0.9785910073       -5.3096825861
 C         1.5030875161       -0.1701381135       -4.0421717083
 C         2.3409583888       -1.6119614724       -5.8914787785
 C         0.6315888880       -7.3562224937       -2.9406644003
 C         3.1303138646       -7.1046227348       -2.6543588127
 C         0.8484645273       -7.4649256116       -9.0442499606
 C         2.7654509525       -6.1995084710      -10.1328640703
 C        -3.4995632236       -0.9071376971      -10.4646378249
 C        -3.3240907225       -2.5090427528      -12.4782589320
 C        -2.1080425671       -0.3364186367      -17.7302762061
 C        -2.1884390961        2.1670666908      -16.9516054090
 C        -9.0643195665       -0.9914182239      -19.6666072099
 C        -7.2973018052       -1.6682341592      -21.5603484351
 C        -8.9990542008        2.6013712087      -26.8439804619
 C        -6.6208256278        1.9257736489      -26.6900046528
 C        -7.2978091249        5.8114646033      -20.5923662573
 C        -6.0284536563        7.5803942311      -21.8197868978
 H        -4.5936927992        7.6578129394      -19.4722790764
 H        -3.1223985957        7.2903939598      -20.4659042405
 H        -3.4201182325        6.4769416004      -18.9777525361
 H        -4.7249758826        5.4944305697      -24.0921168541
 H        -6.4564724860        6.1373960719      -24.1119001258
 H        -5.5426296523        3.2667929578      -24.6623830824
 H        -5.9415257152        4.4866125768      -25.8755587579
 H       -10.3906942772        1.4320450802      -24.3313722305
 H        -9.3705280681        2.4657328119      -23.5029909050
 H        -9.2872141168       -0.5980738406      -22.9881007068
 H       -10.3866439552        0.3223621596      -22.0337728728
 H        -7.2150693491       -1.0578049217      -17.9452017644
 H        -6.8643416914        0.5718051556      -17.8306638737
 H        -4.4701974493       -1.0401713847      -18.6100191331
 H        -5.0077845552       -1.0357022198      -16.9387750849
 H        -2.2283284990        1.9028061690      -14.6906631278
 H        -1.1646694802        0.5425115489      -14.7162167201
 H        -3.7418663641        0.4903817950      -12.8864502675
 H        -2.4150027261        1.4707135581      -12.4270560524
 H         0.0578370536       -2.5509266821      -12.1688378270
 H        -0.8073731870       -4.0772444596      -11.9284705888
 H         1.0924462077       -2.9941834343       -9.7279535471
 H         1.7235299579       -3.8246245411      -11.1123969477
 H         4.1264812356       -5.9421351196       -7.5190275503
 H         3.0953658920       -7.4067799755       -7.4086007132
 H         3.2499948273       -4.9396265621       -5.4791962180
 H         4.1900805658       -6.4475896093       -5.4197955773
 H        -0.0073930065       -4.5528865218       -1.9118648978
 H        -0.4736415909       -4.8834107224       -3.4999555943
 H         1.0726457600       -2.4458585522       -2.7688330715
 H        -0.6991698480       -2.3566420109       -2.6760727444
 H        -0.0186497775        1.8063803295       -6.7039110432
 H        -0.0367948488        1.1667957648       -4.9797775838
 H        -2.2321921400        0.2549771950       -7.1041169696
 H        -2.4001216952        1.8906114744       -6.3915220547
 H        -3.1181659754       -2.7663193190       -4.5472384102
 H        -2.1829804735       -2.5343594715       -5.9396373755
 H        -4.0153094821       -3.8270259755       -7.3885993202
 H        -4.7994672523       -4.0300649483       -5.7885150266
 H        -2.5219484416       -7.4248591435       -2.5096983975
 H        -4.1548494270       -7.5606772952       -3.1023515327
 H        -4.7959007470       -6.8865049268       -1.0304765989
 H        -4.3613315775       -5.2529375237       -1.5409748151
 H        -4.2136810849       -3.6314189192        3.0096788187
 H        -5.4967074684       -4.6881436618        2.9603160281
 H        -6.7875685307       -2.6557689353        2.7512135454
 H        -6.2333248938       -2.6788921421        1.0213454312
 H        -8.4195574357       -0.3418524219        5.3416904928
 H        -8.3402072505       -2.0411923525        5.9311373374
 H        -8.5427809485       -1.7389169677        4.2731242142
 H        -5.8322752112        1.2791011350        4.9413275857
 H        -4.8917116183        1.4432655656        3.4056835291
 H        -4.2978298677        0.4630025060        4.6675504636
 H        -6.8322685808        0.8108970025        1.8756948756
 H        -7.8318452352        0.7614662637        3.4307076469
 H        -7.6777724413       -0.6929902828        2.3032191589
 H        -3.7385419749       -7.7308682407        1.9900192591
 H        -4.9927026186       -7.3535654224        1.0308530780
 H        -5.0487131985       -6.7430124022        2.5734712737
 H        -1.6689716512       -6.4087821145        2.3683824779
 H        -2.7640548410       -5.4086727934        3.3751590900
 H        -1.8530520427       -4.6893145281        1.9727700643
 H        -4.7373826827       -6.8944757817       -6.7398249754
 H        -5.5173727688       -6.1337559673       -5.4095285460
 H        -4.9270685441       -7.7593284391       -5.2615699577
 H        -1.9316278896       -7.4132874666       -6.4923484125
 H        -2.7520816047       -8.2877587032       -5.1357729730
 H        -1.4392382461       -7.1636870541       -4.7491910170
 H        -5.4132686652       -0.1745311022       -3.0552065585
 H        -3.6255035154       -0.6949980607       -2.7720287075
 H        -4.7948885343       -1.7704398590       -3.5178302860
 H        -5.6052048853        1.4025314490       -4.4589962843
 H        -5.7999818426        0.5669859611       -5.9317597472
 H        -4.4216271333        1.7610801615       -5.8121037730
 H         2.2384040057        0.5468300173       -4.3559243046
 H         2.0407593468       -0.8902366185       -3.4328695525
 H         0.6958018737        0.2516678096       -3.4399785980
 H         2.8889808544       -2.4189723218       -5.4265856967
 H         3.0217385837       -0.8132553655       -6.1299247505
 H         2.0833261499       -1.9781419720       -6.9210244554
 H         0.8188751829       -8.4154577013       -2.9699081780
 H        -0.2033806616       -7.2692599022       -3.6299866247
 H         0.3295405556       -7.0233245004       -1.9537972815
 H         4.1131233735       -6.7192645613       -3.0132180008
 H         3.0304115189       -8.1367562546       -2.8514266031
 H         3.1001502457       -6.8819213831       -1.5821916706
 H         0.1007206789       -7.4539847893       -8.2779576026
 H         1.6017261143       -8.1409298002       -8.7102701205
 H         0.3909720916       -7.7539872170       -9.9496246260
 H         3.6325446168       -6.7712103858       -9.7537769466
 H         3.1632340762       -5.2815144569      -10.5376332918
 H         2.5391510403       -6.8520857233      -11.0826145577
 H        -4.5697094506       -1.0419225484      -10.7919257575
 H        -3.3125845921        0.1716762071      -10.3350286116
 H        -3.3917950440       -1.3845753042       -9.5461700317
 H        -3.9770629738       -3.2730827079      -12.0233354505
 H        -2.6593815127       -2.9504625277      -13.2773711338
 H        -3.9678503514       -1.8260903357      -13.1369639631
 H        -1.9675045654       -0.2167932700      -18.7789682734
 H        -2.4786243496       -1.3496146937      -17.5732183118
 H        -1.1461036876       -0.4455541320      -17.2229687448
 H        -1.2469613424        2.1013433393      -16.5254422884
 H        -2.7781867607        2.9734278367      -16.5741451036
 H        -2.1146795390        2.3131269006      -17.9650852784
 H        -8.7893429956       -1.9342956792      -19.1982458088
 H       -10.0275615318       -1.0250942045      -19.9700067046
 H        -8.9494541694       -0.2129943546      -18.8547463867
 H        -7.0912079588       -2.6303315431      -21.0603092403
 H        -6.2508863260       -1.3782425255      -21.9814913354
 H        -8.0483671418       -1.9294390273      -22.3393752248
 H        -9.9100177601        2.9241548763      -26.3293501783
 H        -9.1966125836        1.7336216944      -27.3827880797
 H        -8.6435029215        3.2662169416      -27.6124632704
 H        -6.1670303764        2.7226338339      -27.3360059295
 H        -6.8829733134        1.1578524685      -27.4206006270
 H        -5.8917855658        1.5186805936      -26.0124431493
 H        -8.0783346258        6.3144730832      -21.1362226145
 H        -7.1079640956        6.1614194456      -19.5689351421
 H        -7.3448353098        4.7172134206      -20.4068617411
 H        -5.0896378239        7.9545107994      -22.2628862073
 H        -6.1244595176        8.1832612404      -20.8857963200
 H        -6.9250039904        7.6277523997      -22.3885893116
 Na       -5.8802454621        2.5877134646      -19.9942426509
 Na       -0.5365700747       -3.5288723390       -7.7122815985
