232

 C        -3.9541489542        6.8555543713      -19.8773130644
 C        -4.8568880705        5.6919026594      -20.3147948011
 O        -4.5023116942        4.5661798060      -20.0108163422
 C        -6.0944265097        5.9976075119      -21.3423615206
 C        -5.8588974369        4.8929743100      -22.4460191894
 O        -5.6802910702        3.6970435554      -22.1310602653
 C        -5.6818266510        5.1944817291      -24.0433122380
 C        -6.1537928536        4.0010296761      -24.8830758005
 C        -7.6823184094        3.5606454853      -25.0027875427
 O        -8.6227100137        4.1924446483      -24.6341164561
 C        -7.9167789957        2.2589517110      -25.8511737188
 C        -8.2617652468        1.1698714640      -24.8237114907
 O        -7.4724001277        0.2266761396      -24.7049675034
 C        -9.3498995936        1.3939516451      -23.7819581659
 C        -9.4655152461        0.5209818339      -22.5851702301
 C        -8.4837105247        0.7703005926      -21.4477476887
 O        -8.2269129156        1.9001559929      -21.0854753883
 C        -7.9570224962       -0.5095053923      -20.6130521646
 C        -6.6731524651       -0.1494489888      -19.8126897982
 O        -5.7442440332        0.2920624007      -20.4197368988
 C        -6.6085649510       -0.2398163333      -18.3056375756
 C        -5.0626316048       -0.3162852262      -17.9578098564
 C        -4.3216563819        0.9079011264      -17.8097084341
 O        -4.7110991364        2.0397007648      -18.1198806746
 C        -2.8417385891        0.8034019026      -17.0859805869
 C        -2.8777388699        0.1935691177      -15.5815832362
 O        -3.5392991691       -0.7988402822      -15.3156027599
 C        -2.1369938527        1.0284050272      -14.3829468409
 C        -2.7865322417        0.5381183393      -13.0857320586
 C        -1.7918711790       -0.5486873301      -12.4414417593
 O        -0.7051917235       -0.6685014869      -12.9504790835
 C        -2.4303303278       -1.4944243682      -11.4402535534
 C        -1.4011286879       -2.3240244804      -10.6513164284
 O        -1.4801745929       -2.2126417246       -9.4444967341
 C        -0.3527702296       -3.1713549525      -11.4153359613
 C         0.7455652842       -3.6628871416      -10.4070339024
 C         0.3133875341       -5.0373139189       -9.8184272560
 O        -0.8576286293       -5.2214773030       -9.5602162286
 C         1.4486745272       -6.1265055766       -9.2722734082
 C         1.9154836123       -5.5473774415       -7.8192310430
 O         1.3914659513       -4.5311764228       -7.3086045973
 C         3.1850655251       -6.1742363118       -7.1845503963
 C         3.2712073444       -6.0898256306       -5.6266027776
 C         2.0103671381       -6.7010264486       -4.9814661974
 O         1.1019621766       -7.2118239364       -5.6526704745
 C         1.8482487584       -6.4820935771       -3.4526436231
 C         1.7391923801       -4.8742298882       -3.2989796437
 O         2.7061228089       -4.1013547174       -3.3843770711
 C         0.4086925523       -4.3755274701       -3.0590390403
 C         0.2924807541       -2.8602030879       -3.1855091782
 C         0.3125706353       -2.4151013279       -4.6744043001
 O        -0.2339810396       -3.1880341687       -5.4357733490
 C         1.0445203092       -1.1933786957       -5.1000944914
 C         0.0681161642       -0.5021729303       -6.1560733462
 O        -0.0930146289       -1.1448880266       -7.1924837938
 C        -0.4543145536        0.9043401190       -6.1351325249
 C        -2.0050206862        1.0637275379       -6.1095748401
 C        -2.5290395515        0.2232750875       -4.9125973522
 O        -1.7722715110       -0.3284713768       -4.1335278599
 C        -4.0311477160       -0.2481202015       -4.9188138553
 C        -3.9307149979       -1.3762912306       -6.0089230543
 O        -4.3654918650       -1.1343985208       -7.0958229405
 C        -3.2133484089       -2.6005674061       -5.7618775152
 C        -3.8126510692       -3.8912029053       -6.3604754029
 C        -2.8439583457       -5.1359453619       -6.2169575930
 O        -1.8086940371       -5.2916231877       -6.8125380362
 C        -3.2784743444       -6.3367112568       -5.2491035238
 C        -3.2656622444       -5.7609307253       -3.7458967942
 O        -3.1893386782       -4.5928535184       -3.4668687481
 C        -3.5213412695       -6.8454913160       -2.7027460195
 C        -3.9069458507       -6.4062880259       -1.3169170118
 C        -2.8947180374       -6.2610874733       -0.1289093023
 O        -1.7259372448       -6.5547136295       -0.2717298423
 C        -3.4964104999       -5.7662169257        1.2028768459
 C        -4.3469999748       -4.4527386843        1.1497456127
 O        -4.6188926547       -3.8309522153        0.0970273516
 C        -4.8786267787       -3.7813351394        2.5030156744
 C        -5.8982832811       -2.6317580879        2.2861120985
 C        -5.3304474645       -1.2658657499        2.5410044109
 O        -4.4880522449       -0.6587841744        1.8963430185
 C        -6.1203422107       -0.4730934575        3.6809600107
 C        -6.4875152596       -1.3016575237        4.8994246668
 O        -5.7219684345       -2.0017470263        5.4851620357
 C        -8.0285692634       -1.4744811804        5.2744061023
 C        -5.1769532325        0.6733725288        4.0343941903
 C        -7.3443139438        0.0651123315        2.7936105134
 C        -4.3703315890       -6.9607298489        1.7458015702
 C        -2.4070919056       -5.5160224163        2.2425430496
 C        -4.6950424245       -6.7404356853       -5.7320426842
 C        -2.3066822636       -7.5409380947       -5.4277749224
 C        -4.2658249322       -0.8246394709       -3.5250588602
 C        -5.0416017369        0.8828180341       -5.3581192533
 C         1.4915989525       -0.1667252830       -4.0334041553
 C         2.2383692140       -1.7504817368       -5.8830979407
 C         0.5766806525       -7.1722365392       -2.9581880801
 C         3.0690759098       -7.0022890696       -2.6458933644
 C         0.8648757164       -7.5297065895       -9.1016766761
 C         2.6220492500       -6.1606884282      -10.2877957419
 C        -3.4101539994       -0.7741094331      -10.4825963141
 C        -3.2040978905       -2.5237329108      -12.3554378541
 C        -2.0204800948       -0.1877371418      -17.8508832308
 C        -2.2523889321        2.2061144267      -17.0987762028
 C        -9.0739439142       -0.9779405868      -19.6994182712
 C        -7.5672295823       -1.7331984650      -21.5221268002
 C        -9.0437375684        2.5878415601      -26.8498517847
 C        -6.6573978562        1.7614908622      -26.5689942631
 C        -7.4128238714        5.8143345941      -20.5192963366
 C        -6.1162995692        7.4625265071      -21.7538685162
 H        -4.4518091713        7.7932476450      -19.5435308283
 H        -3.2723238223        7.1061076688      -20.6377862475
 H        -3.3509331483        6.4276359238      -19.0190036869
 H        -4.5976541219        5.2996197380      -24.1948435003
 H        -6.1430926332        6.0793035133      -24.3242161079
 H        -5.5509871855        3.2500764985      -24.4802829121
 H        -5.8943695813        4.1745655465      -25.9387017961
 H       -10.3809833897        1.3101383931      -24.1877180755
 H        -9.3208396981        2.4525346293      -23.4998050564
 H        -9.2742373851       -0.5359762196      -22.7857623828
 H       -10.3972902815        0.5608188415      -22.0497583547
 H        -7.1781931951       -1.1194623351      -17.9418921363
 H        -7.1400415963        0.6167862145      -17.8014243349
 H        -4.5867497459       -0.8229636424      -18.7952896706
 H        -4.8390911764       -0.9237672818      -16.9835501445
 H        -2.2372204052        2.0589644908      -14.5823436313
 H        -1.0623501853        0.8240451320      -14.4565700349
 H        -3.7468173526        0.0967668838      -13.3097551176
 H        -3.0454084044        1.2834380602      -12.3664593027
 H        -0.0656832223       -2.4622782752      -12.2390352612
 H        -0.8351232093       -4.0519653955      -11.8766625550
 H         0.7892527306       -2.9787625138       -9.6147108204
 H         1.7635557007       -3.5440648551      -10.8181615102
 H         4.1802202469       -5.7617488292       -7.5232958378
 H         3.1508235126       -7.3798710127       -7.4507370622
 H         3.3189823409       -5.0853451263       -5.2135842782
 H         4.2095699121       -6.6838388205       -5.3909514074
 H         0.0169802398       -4.7037902973       -2.0661606272
 H        -0.3732803521       -4.8148207919       -3.7638357238
 H         1.0616753775       -2.4614547449       -2.5280361040
 H        -0.6928187841       -2.7196437991       -2.7327066267
 H        -0.2682423050        1.2970920662       -7.1650915326
 H         0.1995456257        1.3572103891       -5.4629385324
 H        -2.3923278483        0.6630192041       -7.0992353846
 H        -2.2275626760        2.0725852746       -6.0161148068
 H        -2.8845182728       -2.5484670976       -4.6884198687
 H        -2.2130932778       -2.6191773740       -6.2364066046
 H        -3.9009257882       -3.7175298023       -7.4083184484
 H        -4.7720502993       -4.0433196961       -6.0155604084
 H        -2.6514212448       -7.4496176087       -2.6835633310
 H        -4.2631186394       -7.4265912796       -3.1521820686
 H        -4.6570819490       -7.2140350467       -1.0094089859
 H        -4.4126362447       -5.4200273990       -1.2738031597
 H        -4.0275281600       -3.5256383310        3.1621970016
 H        -5.4242589815       -4.5108297592        3.0496558429
 H        -6.8159169971       -2.7505114968        2.8190380209
 H        -6.0444019052       -2.7005803751        1.2222702154
 H        -8.5508702603       -0.5502376514        5.5382881662
 H        -8.0631856740       -2.2337116857        6.1143982470
 H        -8.5141334709       -1.9841364760        4.4821949985
 H        -5.6703149416        1.1734185902        4.8832703343
 H        -5.0006612412        1.3919356848        3.2316076012
 H        -4.1435373746        0.3591435244        4.3206936810
 H        -7.0781597939        0.9083733940        2.1760045193
 H        -8.0314169146        0.3595641432        3.6109730361
 H        -7.7234539431       -0.7524115391        2.1574234339
 H        -3.7030797279       -7.8535294671        1.7449846754
 H        -5.1985886793       -7.3398512224        1.1409987807
 H        -4.7938690765       -6.9140289502        2.7289400497
 H        -1.8830562772       -6.4278257615        2.5051906843
 H        -2.9441258402       -5.2337146440        3.2050780643
 H        -1.6395598410       -4.7734825012        1.9476596292
 H        -4.7926047958       -6.8488596306       -6.7931122551
 H        -5.4801962801       -6.0752861602       -5.4598858919
 H        -4.9974467692       -7.7582044484       -5.2861278615
 H        -2.1476829781       -7.6300477290       -6.5375098242
 H        -2.8143457079       -8.4614541116       -4.9973162714
 H        -1.4004549520       -7.2841877422       -4.9245128448
 H        -5.1154319807       -0.3036894315       -3.0418154976
 H        -3.3096533386       -0.8835499317       -2.8857301796
 H        -4.5921119861       -1.8371680528       -3.5387558640
 H        -5.2477469154        1.4895830766       -4.4405731981
 H        -5.9243022431        0.3473855308       -5.4683150025
 H        -4.7500051298        1.4887658022       -6.1383251979
 H         1.8093653619        0.7235199729       -4.5024719607
 H         2.3051674663       -0.5691194204       -3.5005959804
 H         0.6386575788        0.0345116061       -3.3535750406
 H         2.8800444383       -2.4887740134       -5.4021336251
 H         2.8243371229       -0.9915507973       -6.2863790224
 H         1.8466594484       -2.2698021035       -6.8138039847
 H         0.7658960772       -8.2476158203       -3.0618683759
 H        -0.2325649191       -7.0199637701       -3.6584558916
 H         0.3059299629       -6.9383659167       -2.0122764348
 H         3.9829290038       -6.4339943118       -2.9258758366
 H         3.1116770043       -8.0170148217       -2.8220240894
 H         2.9432761319       -6.7505386775       -1.6035047077
 H         0.0600180879       -7.5251905588       -8.4277123052
 H         1.6202184605       -8.1001779241       -8.6648637933
 H         0.4856282318       -7.9319898803      -10.0653725807
 H         3.4483970807       -6.7843239940       -9.9376125431
 H         3.0313934087       -5.1163486708      -10.3952673683
 H         2.5696816918       -6.5700969327      -11.2795431822
 H        -4.3683730619       -0.5559057172      -10.8898535603
 H        -2.9278624246        0.1544160625      -10.2315857959
 H        -3.5534254990       -1.3670827450       -9.5932949759
 H        -3.9787405802       -3.1337198536      -11.7467781553
 H        -2.4953767253       -3.2409068226      -12.8728130136
 H        -3.6712695200       -2.0698466405      -13.2078309873
 H        -1.8290930301       -0.0464095674      -18.8845611252
 H        -2.4774879742       -1.1422118657      -17.8055330681
 H        -1.0950411368       -0.4309339900      -17.2817939711
 H        -1.2728584446        2.1200584838      -16.5874987668
 H        -2.8595934631        2.8285803251      -16.5451146775
 H        -2.1728077260        2.5755730174      -18.0968425274
 H        -8.8276120554       -1.9292722640      -19.2437695930
 H        -9.9596329037       -1.2204968998      -20.3504605817
 H        -9.3782405736       -0.2772075510      -18.9566857603
 H        -7.0387903910       -2.6011547876      -20.9529897862
 H        -6.7873466551       -1.5136760129      -22.1664558031
 H        -8.4900002364       -2.1559419689      -21.9971850784
 H        -9.9081362866        3.1278572057      -26.3846265440
 H        -9.4553525807        1.7156033622      -27.3198088285
 H        -8.5526730736        3.0705496213      -27.6742487341
 H        -6.2054326784        2.5178249844      -27.0892984993
 H        -6.7692433235        1.0385207657      -27.3350961892
 H        -6.0163554113        1.3590612056      -25.7508232137
 H        -8.0175199628        6.6186992891      -21.0051549743
 H        -7.2203090705        5.9679787171      -19.4645243164
 H        -7.7817908428        4.7256914768      -20.5921606026
 H        -5.1648094361        7.8165310855      -22.1697545753
 H        -6.2980318477        8.0333418901      -20.8606845132
 H        -6.9797193010        7.5072449234      -22.3924636246
 Na       -5.9312494628        2.4879545561      -20.1543074154
 Na       -0.6076359553       -3.4154900763       -7.7588364261
