232

 C        -4.0110986858        6.9095090254      -19.9153434694
 C        -4.8448170146        5.6934770081      -20.3469543033
 O        -4.6046912786        4.5721110016      -19.9608796397
 C        -6.1261245907        5.8974613406      -21.3065240912
 C        -5.9056078469        4.8823859558      -22.4133205405
 O        -5.7890267354        3.6932534143      -22.2556736283
 C        -5.7995657668        5.1961441656      -23.9376160691
 C        -6.0644181514        3.9406371993      -24.8506520355
 C        -7.5178323880        3.5483824598      -25.0800596846
 O        -8.4940285516        4.1152516390      -24.5790695092
 C        -7.8405108569        2.2199375457      -25.8688294938
 C        -8.1763572896        1.1465646542      -24.6607107425
 O        -7.3783807211        0.2649572620      -24.4528292904
 C        -9.3920629562        1.4496377309      -23.7488587646
 C        -9.5148924793        0.5034335397      -22.5964163988
 C        -8.4814737761        0.8091100574      -21.4046302537
 O        -8.2066205623        1.9333261012      -21.0968668373
 C        -8.0578481109       -0.4908506053      -20.6005632530
 C        -6.7413845603       -0.0213727537      -19.8584228284
 O        -5.7820582487        0.4307160743      -20.4958917923
 C        -6.5715172394       -0.2003940269      -18.3443472452
 C        -5.0606085793       -0.3676800729      -17.9028298049
 C        -4.2567395772        1.0094827892      -17.7716586784
 O        -4.6651321792        2.0999086530      -18.1022228790
 C        -2.7799642858        0.8862283642      -17.1371117299
 C        -2.9484804203        0.3929264259      -15.6640518312
 O        -3.4519493644       -0.6545447903      -15.4350421872
 C        -2.3887529125        1.1295482128      -14.4658783024
 C        -2.7658732044        0.5210211627      -13.1657939213
 C        -1.8638744160       -0.5644343266      -12.5959016205
 O        -0.6966797137       -0.6941719498      -13.0117911466
 C        -2.4443792295       -1.4786479316      -11.4914579977
 C        -1.3703845091       -2.2161309201      -10.5636005138
 O        -1.5387347889       -2.2233665433       -9.3784796162
 C        -0.3215249304       -3.0771273123      -11.2424076561
 C         0.7417559181       -3.7698885816      -10.3687828185
 C         0.3086617112       -5.0545174266       -9.6568566973
 O        -0.8782381054       -5.3569563678       -9.6019715421
 C         1.4149628889       -5.9874245434       -9.1659289247
 C         2.0018678150       -5.4646623508       -7.8458043979
 O         1.5693327926       -4.4030607064       -7.3550240025
 C         3.2307978564       -6.1235070641       -7.2940352642
 C         3.2483759421       -6.1940311232       -5.7325282120
 C         2.0030157146       -6.6814003640       -5.0040291194
 O         1.0942834478       -7.2803433150       -5.5695264632
 C         1.8572910423       -6.4433393140       -3.4655211279
 C         1.7313094152       -4.8461538102       -3.3297584468
 O         2.7568429765       -4.2167164886       -3.5066396119
 C         0.3090576369       -4.3220563257       -2.9962744022
 C         0.3130131429       -2.7838136184       -3.0048077914
 C         0.3588104108       -2.4534440381       -4.5688495976
 O        -0.0404567622       -3.3154221402       -5.3190575859
 C         1.0169908517       -1.1566606718       -5.1470520874
 C         0.1316358535       -0.5302856505       -6.2722228315
 O        -0.1739145366       -1.2420357172       -7.1912539750
 C        -0.4162479697        1.0378835897       -6.2871530730
 C        -1.9453673030        1.1264086495       -6.0098480211
 C        -2.3997199982        0.1721754925       -4.9621670759
 O        -1.5794368094       -0.3836668359       -4.1947585268
 C        -3.9230294051       -0.3242368967       -4.8781437759
 C        -3.9147183950       -1.3932231015       -6.0810021439
 O        -4.3520278371       -1.0668202897       -7.1598334342
 C        -3.0237773370       -2.6842343787       -5.8094718017
 C        -3.6317538795       -3.9471769324       -6.4322009815
 C        -2.8409541463       -5.1299763925       -6.3037179796
 O        -1.7476643970       -5.1991043468       -6.8827173783
 C        -3.3456527262       -6.3210202548       -5.2940453422
 C        -3.2956165468       -5.8112668173       -3.7649369440
 O        -3.2546658230       -4.6523614139       -3.4518015092
 C        -3.5028391342       -6.9852025765       -2.6377964987
 C        -3.9797409481       -6.4594498966       -1.2539129039
 C        -2.9368850252       -6.2484046154       -0.1791883338
 O        -1.7528079237       -6.5261910878       -0.3577529104
 C        -3.4597812465       -5.7799177629        1.2872785334
 C        -4.4152186317       -4.4475062050        1.2186188794
 O        -4.8111782924       -3.9236374206        0.1716418608
 C        -4.7318106275       -3.7300216089        2.5125967606
 C        -5.8697313136       -2.7594294717        2.3580612864
 C        -5.4165038362       -1.2873788153        2.6276582385
 O        -4.4600915965       -0.7890345510        2.1011846521
 C        -6.2271589943       -0.4421622822        3.7513247030
 C        -6.5139392858       -1.4086828240        4.9301687747
 O        -5.5827451527       -1.9747583066        5.4663877654
 C        -7.9681228395       -1.5809540323        5.3669516672
 C        -5.2031107966        0.7511581416        4.0354148547
 C        -7.5494119074        0.0374154633        3.0031346157
 C        -4.4098743645       -6.9419588123        1.7953016440
 C        -2.2668038286       -5.5345911701        2.1697985984
 C        -4.7654942924       -6.7025710359       -5.7221436978
 C        -2.4113733778       -7.5894596988       -5.4759445947
 C        -4.2483316957       -1.0005216440       -3.5047648549
 C        -4.9563046175        0.7340173915       -5.3272341759
 C         1.4689845611       -0.1963778310       -3.9837060192
 C         2.2576523793       -1.7907395294       -5.8713950408
 C         0.5896361919       -7.0323337913       -2.9154201400
 C         3.0995502780       -6.8512975926       -2.6618609015
 C         0.8286263185       -7.4406715754       -9.1531452162
 C         2.4681317201       -6.0537357803      -10.3390171304
 C        -3.3419288608       -0.6524900819      -10.5784094530
 C        -3.2327585850       -2.6058364889      -12.2254089587
 C        -1.8900067233       -0.0810734393      -18.0270912635
 C        -2.1918278103        2.3277639848      -17.3036823598
 C        -9.2730272402       -0.9484264896      -19.6736567388
 C        -7.8180222097       -1.7323038674      -21.5245475743
 C        -9.1287279120        2.4940679428      -26.8367229757
 C        -6.6521818002        1.6323766088      -26.6363017779
 C        -7.5069417826        5.5214159961      -20.4361660463
 C        -6.0376380784        7.3312507068      -21.8733158736
 H        -4.6418393704        7.7406473981      -19.6961393809
 H        -3.4755832334        7.2314018357      -20.8384136785
 H        -3.2772568107        6.7445448851      -19.0905506144
 H        -4.8221588629        5.5465280224      -24.1259881960
 H        -6.4546279247        5.9582091064      -24.2159247548
 H        -5.6043190622        3.1334307738      -24.2593761166
 H        -5.5687717594        4.0401700453      -25.8472060474
 H       -10.3661302943        1.3147865254      -24.2929510810
 H        -9.4711320772        2.4922983183      -23.3950216249
 H        -9.3693763225       -0.5703703332      -22.7571959958
 H       -10.4600669856        0.6188223887      -22.0553377184
 H        -7.1756300200       -1.0573434327      -18.0039292962
 H        -7.0208196562        0.6856431890      -17.7285855869
 H        -4.5795011146       -1.0407916636      -18.6473911065
 H        -5.0344754824       -0.8762244893      -16.8687602613
 H        -2.5622875620        2.2427419272      -14.5306576431
 H        -1.3297140864        1.0571805503      -14.6553006913
 H        -3.7734945572        0.1605282699      -13.1670106473
 H        -2.7825725252        1.2839304208      -12.3692728146
 H         0.0956538736       -2.4397577658      -12.0561490245
 H        -0.8810562792       -3.8746354400      -11.7115908476
 H         1.1464732003       -3.0288255151       -9.6755706825
 H         1.5377700407       -3.9052694691      -10.9539375462
 H         4.1018810079       -5.4542580670       -7.5306229086
 H         3.4077771141       -7.0793919986       -7.7430383756
 H         3.3823910647       -5.1732325463       -5.2801352114
 H         4.0874820847       -6.8749096997       -5.4458038003
 H        -0.1931850031       -4.8236495934       -2.1264635766
 H        -0.4176550768       -4.5936680655       -3.8359527143
 H         1.2300003461       -2.4867703842       -2.4385142055
 H        -0.6031774271       -2.4602610937       -2.5106026406
 H        -0.3001814706        1.4376706855       -7.2103077721
 H         0.2446928886        1.5041858513       -5.5544190256
 H        -2.5377800124        1.1312140885       -6.8626176651
 H        -1.9910805976        2.0925672604       -5.3827484682
 H        -2.8618576601       -2.6851712311       -4.7388442541
 H        -2.0043771744       -2.6287270462       -6.1634287330
 H        -3.9341217281       -3.7550661148       -7.4344179542
 H        -4.5729471274       -4.0906247725       -5.9217881660
 H        -2.4623330099       -7.2650697030       -2.5320448786
 H        -4.0576572795       -7.8327862372       -3.0563919959
 H        -4.7243473884       -7.2327726216       -0.8668780303
 H        -4.4754470638       -5.4622486940       -1.2472570292
 H        -3.7500143824       -3.3741766139        2.9422596313
 H        -5.1174302772       -4.4472352387        3.2394339790
 H        -6.7507710373       -3.0911603785        2.8732964303
 H        -6.0086192566       -2.7979737417        1.3106518716
 H        -8.1379668889       -0.5142486096        5.5680355147
 H        -7.9901780627       -2.1189079673        6.3355296908
 H        -8.7148710106       -2.0794731623        4.7233383560
 H        -5.5991585232        1.3433669411        4.8842692306
 H        -4.8683393608        1.4164333520        3.2343891670
 H        -4.2576398730        0.2528938986        4.3865324821
 H        -7.3262502493        0.8507679059        2.3577831563
 H        -8.2029963671        0.3458824711        3.7860519239
 H        -7.9784219605       -0.8089045770        2.4016733444
 H        -4.0781206619       -7.9675252310        1.5632032828
 H        -5.5090069499       -6.9840815331        1.3842899287
 H        -4.5806759877       -6.9557307441        2.8461620923
 H        -1.7307064158       -6.4424080421        2.2959931796
 H        -2.6246722911       -5.2687789800        3.1423094964
 H        -1.5078369105       -4.8048745186        1.7817722284
 H        -4.9908544798       -6.9643568279       -6.7468757071
 H        -5.5467462447       -5.9897865074       -5.4481660054
 H        -4.9884612080       -7.5966354246       -5.1113191392
 H        -2.6522779999       -7.9771490576       -6.4306077615
 H        -2.7620625184       -8.3193605464       -4.6796461270
 H        -1.3382220998       -7.2983459729       -5.3673222466
 H        -4.9507894069       -0.3808299643       -2.9802467622
 H        -3.4006108664       -1.2628270736       -2.9217713365
 H        -4.8165810352       -1.9260381043       -3.5589658007
 H        -4.8227105670        1.6525391185       -4.8600735903
 H        -5.8521201145        0.2462731447       -4.9110511014
 H        -4.9738114749        0.8953601157       -6.3727664395
 H         1.5962983744        0.8064944639       -4.3915461305
 H         2.3539888428       -0.5226384270       -3.4574392407
 H         0.6330307260       -0.1235843953       -3.3457305223
 H         2.8844785179       -2.2396593025       -5.0899427558
 H         2.9019169259       -1.0630576977       -6.4205695930
 H         2.0704072352       -2.5838861509       -6.5149013924
 H         0.6744859445       -8.0767502824       -3.1060735011
 H        -0.2676585672       -6.6872320538       -3.4495426572
 H         0.4775582781       -6.8958479116       -1.8040105068
 H         3.8323873165       -6.1389981044       -2.8296943798
 H         3.3537037835       -7.9588280758       -2.8745255076
 H         2.8598961483       -6.6836404958       -1.6434335163
 H        -0.0995050281       -7.4241304308       -8.5637079644
 H         1.5686075123       -8.0242348209       -8.5821411394
 H         0.5882338698       -7.8266764364      -10.1437813137
 H         3.0003038192       -6.9550554983      -10.0850739087
 H         3.1947214693       -5.2124451791      -10.3518666294
 H         2.2347513678       -6.2122071549      -11.3229487454
 H        -4.0053023498       -0.0082679360      -11.0447245948
 H        -2.6418116086       -0.0567570312      -10.0498386660
 H        -3.9303641176       -1.3024781616       -9.8734607223
 H        -3.8400666548       -3.0952287967      -11.4636428307
 H        -2.5836923348       -3.3706148783      -12.6135077343
 H        -3.7908948924       -2.3313736046      -13.0979677139
 H        -1.8931581039        0.3531174265      -19.0432770345
 H        -2.2130890466       -1.1009544829      -18.2293095262
 H        -0.9176277388       -0.2132690902      -17.6363777560
 H        -1.1795082490        2.2369638643      -16.8651412355
 H        -2.7456389795        2.9349092639      -16.5494761308
 H        -2.2269215267        2.7873647806      -18.3442641615
 H        -9.0551891502       -1.8062605661      -19.0367985326
 H        -9.9805648626       -1.4004978370      -20.4868304741
 H        -9.8301152420       -0.1908574712      -19.1847798362
 H        -7.0186590176       -2.3695116950      -21.1851354018
 H        -7.2822138955       -1.4361709278      -22.4038462762
 H        -8.7116308902       -2.2815057021      -21.6969184605
 H        -9.8682784788        3.0504288570      -26.2816190423
 H        -9.7134912047        1.5550606747      -27.2199385445
 H        -8.7720154381        2.9517633242      -27.7791151490
 H        -6.4724742566        2.2515552598      -27.4876292845
 H        -6.8837278958        0.7303982597      -27.1504650742
 H        -5.8174038426        1.4289979849      -25.9833325726
 H        -8.1027378397        6.2213463655      -21.0508307458
 H        -7.4604392788        5.7773608407      -19.3491997506
 H        -7.7383759774        4.4846892348      -20.5600683338
 H        -5.0675185385        7.3788834162      -22.3033891452
 H        -6.2003338062        8.1198305821      -21.1674600962
 H        -6.7920008584        7.3273373465      -22.6716865319
 Na       -5.9827283435        2.5218734878      -20.3296348032
 Na       -0.6763020650       -3.3733978445       -7.7523635168
