232

 C        -4.2178008602        6.7679977894      -20.4759806904
 C        -5.1911496970        5.6421691157      -20.6324964578
 O        -5.1252892087        4.6163213611      -19.9439100162
 C        -6.3060454642        5.7511642344      -21.7070812621
 C        -5.8605660420        4.6417308743      -22.7091194941
 O        -5.8514574909        3.4879496344      -22.3187086479
 C        -5.5154002579        5.0218485061      -24.1001480658
 C        -6.0315068096        4.1163296922      -25.2373384436
 C        -7.4803444305        3.5287387648      -25.0734190625
 O        -8.4097121934        4.1686204090      -24.6467382825
 C        -7.7568249387        2.0147979033      -25.5168552282
 C        -8.2165440763        1.3726658059      -24.1658643149
 O        -7.4324190373        0.6702900703      -23.5559772438
 C        -9.6447222843        1.3752109294      -23.7788517181
 C        -9.8569325252        0.7739229905      -22.3519097662
 C        -8.5406738522        0.8725139009      -21.3573606996
 O        -8.1623342838        1.9884290065      -21.0394094942
 C        -8.1377039831       -0.3684395327      -20.5119472283
 C        -6.7626458337       -0.1543990430      -19.9538377276
 O        -5.9277857544        0.2398573265      -20.7745735386
 C        -6.3803532409       -0.2861649670      -18.4904644304
 C        -4.8676480970       -0.3181667985      -18.1017515303
 C        -4.3266427030        1.1510449157      -17.8599206299
 O        -5.0160069052        2.0759438003      -18.2452576422
 C        -2.8283264755        1.1792222891      -17.3253928741
 C        -2.8056798113        0.3958333043      -15.9470065599
 O        -3.1730690580       -0.8160954393      -15.8486786098
 C        -2.2475881236        1.1903020482      -14.7041927097
 C        -2.9203401699        0.7293002481      -13.3699431755
 C        -2.0172955617       -0.5324735081      -12.8480634444
 O        -1.0901299688       -0.7927253777      -13.5079894063
 C        -2.5315619651       -1.2851802388      -11.5174222596
 C        -1.4926630047       -2.1695389884      -10.7002275546
 O        -1.6728694593       -2.3521628406       -9.4860038187
 C        -0.2173718916       -2.7958665449      -11.4677815048
 C         0.8928804153       -3.4667319952      -10.5592889707
 C         0.3932426282       -4.8493079081       -9.9907210043
 O        -0.8051284736       -4.9842199233       -9.9758819481
 C         1.2694773813       -5.9728650022       -9.4001440097
 C         2.0789349520       -5.4542718423       -8.0554359830
 O         1.9646972279       -4.3448797947       -7.6810529253
 C         3.1379214969       -6.3958431654       -7.4000956150
 C         3.2152070115       -6.0922742175       -5.8508005298
 C         2.0021383495       -6.6698058887       -5.0438397422
 O         1.1073538723       -7.2164787169       -5.6339367221
 C         2.0033838978       -6.2078033100       -3.5192057425
 C         1.8005510704       -4.6838461007       -3.4781067352
 O         2.5765064898       -3.9256787650       -4.0574091866
 C         0.6039260505       -4.1417427090       -2.7280731575
 C         0.7671680428       -2.6285737127       -2.8350782890
 C         0.7062424433       -2.3021851750       -4.2665581149
 O         0.2126039075       -3.1118655790       -5.0595764810
 C         1.4610799093       -0.9795174873       -4.8744486244
 C         0.3916564130       -0.4549052112       -5.9629849423
 O         0.0332333837       -1.2120623665       -6.8348083511
 C        -0.1901836858        0.9607032550       -5.9614860231
 C        -1.7277841379        1.0622275860       -5.7315054608
 C        -2.1968637644       -0.0744935960       -4.8328265100
 O        -1.4233257883       -0.6632566659       -4.1397950471
 C        -3.6688226463       -0.4616015027       -4.8757813850
 C        -3.7932766149       -1.5062461345       -6.0692325803
 O        -4.4479243039       -1.1925381916       -7.0114542017
 C        -3.0068579998       -2.8349867826       -6.0931572847
 C        -3.8223679637       -4.1166403202       -6.5142275381
 C        -2.9198883423       -5.3595409539       -6.1566117722
 O        -1.7549686130       -5.4373289585       -6.4752545915
 C        -3.5050129535       -6.5379972608       -5.3534446396
 C        -3.4928655742       -6.0091762823       -3.8592430925
 O        -3.4591858779       -4.8164721532       -3.6476166773
 C        -3.6460506537       -7.0889112586       -2.7666166038
 C        -4.2142019557       -6.5535118495       -1.3907917802
 C        -3.0813427995       -6.0526975314       -0.3683403302
 O        -1.9343455726       -6.0842054779       -0.6784303298
 C        -3.4967266741       -5.7760328814        1.0724663447
 C        -4.5622289280       -4.6700337045        1.2027928614
 O        -5.4793874369       -4.6407664493        0.4247256271
 C        -4.3203997256       -3.5848850808        2.2451810169
 C        -5.6048723772       -2.7744779144        2.4747178944
 C        -5.2595889455       -1.3404868356        3.0055629152
 O        -4.3972672238       -0.7163815070        2.4424072258
 C        -6.3024718515       -0.7347227078        4.1688674987
 C        -6.2806214302       -1.6517134654        5.4998532958
 O        -5.2370263931       -2.0697815276        5.9760087566
 C        -7.6262028920       -1.7482642894        6.2652419567
 C        -5.9489423324        0.7758083287        4.4441146174
 C        -7.7311065522       -0.9021115964        3.4446987924
 C        -4.0502776491       -7.1998834513        1.5116465276
 C        -2.2572958126       -5.4438638536        2.0182754145
 C        -5.0523412370       -6.7542576683       -5.8066289219
 C        -2.7183498378       -7.9021809747       -5.4891813061
 C        -4.1350418358       -1.0144069015       -3.5485945865
 C        -4.7480326226        0.7954868359       -5.2195834732
 C         1.9302613942       -0.0462672113       -3.7511104725
 C         2.6479932110       -1.3748059062       -5.7686791729
 C         0.8044954421       -6.8991081245       -2.8344468441
 C         3.3157209588       -6.6518344019       -2.7159756962
 C         0.4039489553       -7.0842115527       -8.8866714264
 C         2.3102820010       -6.3881962602      -10.5113628463
 C        -3.2857826867       -0.4359967096      -10.4913182665
 C        -3.4991149156       -2.2508827868      -12.2564169432
 C        -2.0079457496        0.3278901060      -18.3047889083
 C        -2.3741657248        2.6533902071      -17.2610576227
 C        -9.2242593957       -0.2907576698      -19.3890393469
 C        -8.1201809182       -1.6712518548      -21.3365107059
 C        -8.7887864027        1.9007577949      -26.6520665984
 C        -6.5043358324        1.2310383126      -26.0237158304
 C        -7.6746874586        5.2072655161      -21.0606469117
 C        -6.5255293456        7.1981495284      -22.2024875292
 H        -4.6976259909        7.6300495185      -19.9338018687
 H        -3.9932803060        7.2356657747      -21.4491515304
 H        -3.3704228517        6.4347548695      -19.9161863184
 H        -4.4948137383        4.9612434832      -24.2542002343
 H        -5.7155658521        6.0503968331      -24.2651908647
 H        -5.3185542624        3.2541737849      -25.4304617150
 H        -6.0446853006        4.6895696554      -26.1837425056
 H       -10.2689655719        0.7252603047      -24.3833400222
 H        -9.9427980472        2.4507150292      -23.8787186050
 H       -10.1997704323       -0.2532806907      -22.4000448836
 H       -10.5102772642        1.3473448039      -21.6924699742
 H        -6.9585676243       -1.0532814301      -17.8603893756
 H        -6.6730273874        0.7341143839      -18.0891480270
 H        -4.2734925794       -0.6924246060      -19.0508208168
 H        -4.7762326358       -1.0484020740      -17.3196018495
 H        -2.2915828505        2.2856438592      -14.8402796562
 H        -1.1717222384        1.0482307149      -14.7811253701
 H        -3.9517619915        0.4462735080      -13.5273396472
 H        -2.9350549946        1.5717610462      -12.6792236351
 H         0.1929859840       -1.9736135812      -12.0286825799
 H        -0.5942897337       -3.5861983244      -12.1415136753
 H         1.1354567403       -2.8813718497       -9.7266065284
 H         1.8137864569       -3.4167330520      -11.2063493690
 H         4.0583988318       -6.2566840054       -7.8104523986
 H         2.9110696612       -7.4120573102       -7.6596311324
 H         3.2876733576       -4.9550789402       -5.7582024674
 H         4.0935526150       -6.5573785324       -5.3650645602
 H         0.4628398539       -4.5619880361       -1.6879346149
 H        -0.3355848512       -4.5485293909       -3.1423388244
 H         1.7806249494       -2.4722710450       -2.4291312208
 H        -0.0060606891       -2.0290304124       -2.2888081461
 H         0.1173966763        1.3351224924       -6.9748061747
 H         0.3803122753        1.5166473627       -5.2912950174
 H        -2.2139893602        0.8645759020       -6.7128587558
 H        -1.9735702752        2.0371592159       -5.2688454930
 H        -2.7527584881       -3.0152626082       -5.0925777946
 H        -2.0715226695       -2.6943457609       -6.6196933440
 H        -3.9966892902       -4.0865089531       -7.5842217768
 H        -4.8685747664       -4.0640772667       -6.0752161201
 H        -2.6711108562       -7.5198841849       -2.5850037335
 H        -4.2700658386       -7.7546671019       -3.3496864600
 H        -4.8134452534       -7.3731596613       -1.0046097698
 H        -4.8717580638       -5.6413748394       -1.5812204444
 H        -3.6619720229       -2.8299961799        1.8122587510
 H        -3.9309071578       -4.0072903070        3.2493058276
 H        -6.1219034582       -3.1751389559        3.3191047949
 H        -6.2135000096       -2.8274364255        1.6102769941
 H        -7.9114948913       -0.7674297104        6.6641270918
 H        -7.3923616879       -2.4206489425        7.0825780814
 H        -8.3748405213       -2.3080406137        5.6347505407
 H        -6.6556908589        1.2431895335        5.1653898354
 H        -6.1812880494        1.3678191970        3.5201314916
 H        -4.9299839477        0.9635931344        4.7411815307
 H        -7.7166867319       -0.2031789212        2.5696526527
 H        -8.5278254417       -0.6061548312        4.1280580430
 H        -7.9197092386       -1.9224071314        3.1680055140
 H        -3.2770541751       -7.9023784111        1.9416662241
 H        -4.5583563278       -7.7668991672        0.8058248063
 H        -4.7856600843       -7.1139659487        2.4180359119
 H        -1.4313420894       -6.1957386714        1.8233539360
 H        -2.4198601822       -5.3061484331        3.0877884483
 H        -1.8069704714       -4.5440615855        1.6816206941
 H        -5.2522884010       -6.8726943240       -6.8881977883
 H        -5.6425239313       -5.8576751010       -5.5043269565
 H        -5.5363111566       -7.6018613007       -5.4251463002
 H        -2.4566188438       -7.9340878718       -6.5996132734
 H        -3.3108777169       -8.7529527819       -5.2082445891
 H        -1.7735103421       -7.7492782611       -4.9393700805
 H        -3.9570019759       -0.3789882100       -2.7297558334
 H        -3.5647425685       -1.8870766161       -3.2317947847
 H        -5.1374921897       -1.3327553204       -3.4911461353
 H        -4.2807529721        1.4859623810       -5.9311242611
 H        -5.1006657093        1.2453599611       -4.3615150207
 H        -5.5670697293        0.2912075778       -5.7101400291
 H         2.1765037068        0.8992525094       -4.1850707212
 H         2.8645841072       -0.4272320817       -3.3888725511
 H         1.2460895019        0.1120916229       -2.9369270798
 H         3.3485222884       -1.8813729865       -5.1511488142
 H         3.2341227207       -0.6440492002       -6.2723282214
 H         2.3693878489       -2.2494939837       -6.3855546120
 H         1.0018940659       -7.9571509496       -2.7807226059
 H        -0.0133692098       -6.6734207440       -3.5042306575
 H         0.5537722446       -6.5401837605       -1.8796485727
 H         4.0909665566       -5.9430753705       -3.1004363749
 H         3.5555153434       -7.6402643062       -2.8834386230
 H         3.0245055690       -6.5233842022       -1.6588057208
 H         0.0371574450       -6.7526814403       -7.9078431631
 H         0.9697015464       -8.0184477784       -8.8762677824
 H        -0.4142923237       -7.2022663123       -9.5850817423
 H         3.2239858315       -6.7998097809      -10.1054684773
 H         2.5873914541       -5.5873416468      -11.1009982649
 H         1.7873332152       -7.0981501408      -11.2509083652
 H        -4.3800700299       -0.6096897733      -10.5579342993
 H        -3.1069504086        0.6019491013      -10.7069140251
 H        -2.9777685220       -0.6539177630       -9.5445419738
 H        -4.1027876840       -2.8332803166      -11.5823214254
 H        -3.0683073421       -3.0322579721      -12.8653913612
 H        -4.2192984213       -1.6342992822      -12.8604933693
 H        -2.1987982057        0.6661068387      -19.3143534340
 H        -2.3260428605       -0.7004069846      -18.3953403384
 H        -0.9324474098        0.4247882747      -18.2677562385
 H        -1.3379721213        2.6892377807      -16.8112554494
 H        -3.0011609998        3.2630727273      -16.5738839348
 H        -2.3021685336        3.0457691256      -18.2855580329
 H        -9.0197610177       -1.0624340875      -18.6209910067
 H       -10.2035914175       -0.3936852953      -19.6511881797
 H        -9.1975459205        0.7831445889      -18.9938268449
 H        -7.8482661344       -2.5286160410      -20.7708742614
 H        -7.3508678777       -1.7286372756      -22.1171608385
 H        -9.1416728399       -1.7608917027      -21.7036297828
 H        -9.7181420932        2.5702292536      -26.5710316568
 H        -9.1680151613        0.9008673611      -26.6901774677
 H        -8.3560354331        2.3450735527      -27.6025029652
 H        -5.8834585421        1.8068281502      -26.7300437904
 H        -6.8297033334        0.3028386021      -26.4836334285
 H        -5.9109545936        0.9065830611      -25.2233573938
 H        -8.2409820615        4.5908259770      -21.7529140508
 H        -8.2484024425        6.1284358498      -20.8907384877
 H        -7.3163228497        4.5954666427      -20.1945123748
 H        -5.8071075608        7.6295862542      -22.8921209400
 H        -6.7862069833        7.7202737477      -21.2766264081
 H        -7.4404397923        7.1723348641      -22.7488635510
 Na       -6.1943821446        2.6301040316      -20.3689929764
 Na       -0.3097664022       -3.4205825029       -7.4135727037
