232

 C        -4.2049366420        6.7727968087      -20.6207432384
 C        -5.3318105190        5.6759364642      -20.6496025031
 O        -5.1282656811        4.6830457352      -19.9875079408
 C        -6.4333563932        5.7392176287      -21.7724636954
 C        -5.8646599543        4.6063533128      -22.8019261647
 O        -5.6936362774        3.4122927434      -22.5565839795
 C        -5.5485865945        5.1279375717      -24.1904250919
 C        -5.9144514453        4.0522932868      -25.2268194543
 C        -7.4254403111        3.4989694348      -25.1071733971
 O        -8.3452814895        4.0940281650      -24.6357189523
 C        -7.6701463231        1.9553344891      -25.4781368217
 C        -8.3137925759        1.2639602918      -24.1534875147
 O        -7.5699499937        0.7987346116      -23.2989437079
 C        -9.8293476378        1.4253072336      -23.6914783740
 C        -9.9976366707        0.8223462431      -22.2674609517
 C        -8.7694925527        0.9455145070      -21.4141116283
 O        -8.2897082710        1.9977631124      -21.0161867578
 C        -8.2579313695       -0.3494599584      -20.5544429146
 C        -6.7157963900       -0.1045971578      -20.0142774166
 O        -5.8268374698        0.1465194636      -20.7497950192
 C        -6.4234858334       -0.4460578521      -18.4708521401
 C        -4.9976419541       -0.3683947201      -18.1503649168
 C        -4.3270807419        0.9958064174      -18.0027287288
 O        -4.9885359142        2.0061038129      -18.0484001008
 C        -2.8401338502        1.1868688024      -17.3871940852
 C        -2.8443516712        0.4814193541      -15.9843942236
 O        -3.1457853840       -0.6761916153      -15.9327944550
 C        -2.3699367657        1.1977636373      -14.6448215409
 C        -2.7764043485        0.6247939927      -13.3217650806
 C        -1.9390246956       -0.5749625655      -12.7987502370
 O        -0.9327538527       -0.9396895195      -13.4181979285
 C        -2.5136912979       -1.3196574483      -11.5438700710
 C        -1.3820399159       -2.1413862437      -10.7389020386
 O        -1.5225342262       -2.3551181561       -9.5599884329
 C        -0.2168264441       -2.6947786530      -11.5392891995
 C         0.8342761520       -3.4236937525      -10.7340647806
 C         0.2552023891       -4.6642081490      -10.0114361158
 O        -0.9264375219       -4.8990378442      -10.0157067335
 C         1.2835131809       -5.9264747190       -9.4264732553
 C         2.1119264487       -5.4545824774       -8.2745443239
 O         1.8277753766       -4.3291945111       -7.8000489065
 C         3.0936291765       -6.4089529465       -7.5150543495
 C         3.3124395422       -6.2041963526       -5.9591940031
 C         2.0946760571       -6.5938573510       -5.0886139744
 O         1.1142357521       -7.1746977246       -5.5647626590
 C         2.0465124769       -6.2034790170       -3.5867266801
 C         1.8631503767       -4.6724199700       -3.4447420503
 O         2.7309785909       -3.9131388971       -3.9377595010
 C         0.7031333208       -4.0836664815       -2.7441092429
 C         0.8432137601       -2.5467420223       -2.8172862384
 C         0.7598888699       -2.2803811876       -4.3236379825
 O         0.1937337242       -3.0785384548       -5.0670749818
 C         1.5526051709       -1.0467224810       -4.8547879419
 C         0.4374612149       -0.3717646290       -5.8753820040
 O         0.1325961759       -1.0875683353       -6.8009235419
 C        -0.1347473492        1.0284993137       -5.7864542972
 C        -1.6642161527        1.0522806123       -5.8156908512
 C        -2.3006794331        0.0107831789       -4.8184521841
 O        -1.5577529383       -0.6476547543       -4.1528731297
 C        -3.7533249934       -0.4794124548       -4.8413959281
 C        -3.8985643236       -1.5040262879       -6.0473534256
 O        -4.5708652105       -1.3123919700       -7.0217883862
 C        -3.0515793554       -2.7601463246       -5.9375204477
 C        -3.7399252795       -4.0419948967       -6.4246454013
 C        -2.9298689534       -5.3261558371       -6.2041092845
 O        -1.7724010212       -5.3240463300       -6.5710076425
 C        -3.5594416207       -6.4596255625       -5.3680963790
 C        -3.6904603128       -6.0879454364       -3.9019499959
 O        -3.4791410707       -4.9407949835       -3.5941247178
 C        -3.6993693731       -7.1202624625       -2.6892474875
 C        -4.2189686522       -6.3762320769       -1.3875899127
 C        -3.0814146213       -6.0786707909       -0.4564296766
 O        -1.9236887596       -5.9711762316       -0.8525045911
 C        -3.4485886686       -5.8505092497        1.0415889664
 C        -4.5611516113       -4.7077320290        1.1894156542
 O        -5.6252752719       -4.8246774133        0.5443539656
 C        -4.2953696948       -3.5148749286        2.1319591009
 C        -5.6010764387       -2.7248649447        2.4359591103
 C        -5.2612185216       -1.3644303493        3.0677175077
 O        -4.4039460852       -0.7023159252        2.5778278960
 C        -6.2879110926       -0.8399457861        4.1630311318
 C        -6.1534715350       -1.6198352763        5.5685371723
 O        -5.1766926381       -2.1071125791        6.0494241653
 C        -7.5420650940       -1.6464876803        6.3632106082
 C        -6.1983522054        0.5694910869        4.5163031040
 C        -7.6937762079       -1.0652569812        3.6247609275
 C        -3.9619491924       -7.2192197091        1.6671776941
 C        -2.2224210123       -5.5298679452        1.9137240176
 C        -5.0135316429       -6.7257852177       -5.9382545124
 C        -2.7025410121       -7.7330047956       -5.5499165790
 C        -4.1527555877       -1.1618173635       -3.5625602184
 C        -4.7041403533        0.7604457195       -5.2026479047
 C         1.9876410689       -0.0328599323       -3.8325905017
 C         2.7993516811       -1.5332202207       -5.6692740941
 C         0.8137279710       -6.9227883352       -2.8467674153
 C         3.3220044170       -6.5725213660       -2.7291718097
 C         0.3456620415       -7.0479362824       -8.8708580898
 C         2.2194609251       -6.4656707825      -10.6093425390
 C        -3.2491779759       -0.4383728308      -10.5342287823
 C        -3.5279667017       -2.3812663688      -12.0949782230
 C        -1.8586735232        0.4820986926      -18.3526463908
 C        -2.3297941913        2.5874437205      -17.1315565864
 C        -9.2001619944       -0.2643945348      -19.3060124594
 C        -8.1804980555       -1.6940034274      -21.2854325191
 C        -8.7839788170        1.9106115011      -26.5970784793
 C        -6.2707280303        1.3199250763      -25.8963592858
 C        -7.8358949965        5.2761663631      -21.2363325860
 C        -6.6287285507        7.1582934424      -22.3721624152
 H        -4.6431230333        7.7240672563      -20.2573472824
 H        -3.8433293834        7.0278867200      -21.5488706269
 H        -3.4349176811        6.4467027844      -19.8774201705
 H        -4.4185271243        5.2531624175      -24.3536122153
 H        -5.9333397417        6.1427064929      -24.4338373467
 H        -5.2163006803        3.1903415545      -25.1465524945
 H        -5.8841473468        4.3621162193      -26.3235939077
 H       -10.5795744535        0.8998910473      -24.2818863684
 H        -9.9948954041        2.5032323794      -23.6538626671
 H       -10.1818756369       -0.2651163387      -22.2810928226
 H       -10.7692450209        1.2784593119      -21.6430250290
 H        -6.7344708408       -1.4959482363      -18.2256434665
 H        -6.9375772794        0.1963215988      -17.7737502539
 H        -4.5111427804       -0.9176308232      -18.9441725294
 H        -4.8635802916       -0.9495912007      -17.2445411871
 H        -2.6648130990        2.2429522548      -14.6137537945
 H        -1.2446997880        1.3406589462      -14.7990206303
 H        -3.8783313175        0.4202617833      -13.2204171856
 H        -2.5509329618        1.4730445487      -12.6675343468
 H         0.2000125643       -1.8392700898      -12.0082102339
 H        -0.6425231412       -3.3760487893      -12.2811980179
 H         1.2898918721       -2.7645877715       -9.9491761587
 H         1.6973607088       -3.6341022899      -11.4947732104
 H         4.0416697109       -6.4787930587       -7.9340872986
 H         2.6960309861       -7.4393922557       -7.7420823947
 H         3.7153518156       -5.2390796743       -5.7068412804
 H         4.0476582095       -6.9809029976       -5.6690489739
 H         0.6705285017       -4.5099017759       -1.7637956438
 H        -0.2495217848       -4.4460167845       -3.0793530193
 H         1.7506704958       -2.2937638800       -2.2792120516
 H        -0.0707165755       -2.0845405589       -2.3850596162
 H         0.3279141650        1.7481258859       -6.5936644199
 H         0.3165486236        1.3841592626       -4.8420012342
 H        -1.9028473171        0.7438266349       -6.9364476734
 H        -1.9850321558        2.0362410590       -5.5578251297
 H        -2.6434291912       -2.8709797682       -4.9243852602
 H        -2.1941420981       -2.5739293513       -6.5874269654
 H        -3.9222898154       -3.7283331309       -7.5378881714
 H        -4.7762333106       -4.1718931094       -6.0159717669
 H        -2.5973913765       -7.3393498051       -2.4369522066
 H        -4.2074465609       -8.0036769083       -3.1107311166
 H        -4.9312763628       -6.9949016169       -0.8891856418
 H        -4.6601463231       -5.4023479935       -1.6112848326
 H        -3.7484294557       -2.7706278946        1.5100195092
 H        -3.7627445859       -3.8265589093        3.0521682265
 H        -6.2019842477       -3.2139105896        3.1976043484
 H        -6.2150970699       -2.7075561743        1.5129463563
 H        -8.1377631201       -0.7668836680        6.6183894131
 H        -7.2318195911       -2.2541019792        7.2563476079
 H        -8.0092559869       -2.4054359274        5.7967848687
 H        -7.0327762376        0.7205818147        5.2174032804
 H        -6.4647805242        1.2873357434        3.7320304572
 H        -5.2678711679        0.8627927727        5.0419912428
 H        -7.9063161222       -0.4404789407        2.7675402246
 H        -8.3857446153       -0.7297115844        4.4083004355
 H        -7.8721392351       -2.0997539333        3.5003568972
 H        -3.2612105219       -8.0476626440        1.9314244942
 H        -4.7572651254       -7.6476289373        1.0107318463
 H        -4.4795291738       -7.0490686899        2.5940462863
 H        -1.4129273700       -6.0749833580        1.5175915925
 H        -2.2866130713       -5.7042578649        2.9913333241
 H        -1.9460355794       -4.4986012038        1.8162196608
 H        -4.9218467255       -6.9304315471       -6.9888033375
 H        -5.7327735577       -5.9495475185       -5.8440005499
 H        -5.5180679490       -7.6846672524       -5.5838810767
 H        -2.2611197943       -7.7323785200       -6.5549961674
 H        -3.3703366957       -8.6002815976       -5.4037293932
 H        -1.9389125287       -7.6767939799       -4.8619315723
 H        -4.1211533326       -0.5484664486       -2.7005624145
 H        -3.4411961949       -1.9229068140       -3.2217090143
 H        -5.0518360132       -1.6544777007       -3.5690970604
 H        -4.3790730569        1.1854873746       -6.2069138371
 H        -4.5986943847        1.5236036039       -4.4145445958
 H        -5.7007361768        0.3834787793       -5.1726545819
 H         2.3391337418        0.8591983886       -4.3155690672
 H         2.8245746972       -0.3693362405       -3.2338637954
 H         1.1247910206        0.2150700513       -3.1437798516
 H         3.5965689328       -1.8965511608       -4.9958742771
 H         3.3063072483       -0.8083068179       -6.2497576203
 H         2.5918725651       -2.4762133630       -6.2359674149
 H         0.8149464163       -8.0650912334       -2.8916852521
 H        -0.1019660354       -6.4717113706       -3.3047320087
 H         0.8309019362       -6.6000632121       -1.8447580783
 H         4.1225153992       -5.9537028129       -3.1873477739
 H         3.5430637709       -7.6006297751       -2.8656891816
 H         3.0554180229       -6.4055559874       -1.6801134700
 H        -0.1265942436       -6.6192342411       -7.9775812039
 H         1.0304196128       -7.8681350577       -8.6542909808
 H        -0.4040041847       -7.4569390519       -9.6554680233
 H         3.0288508845       -7.0908425045      -10.2540515740
 H         2.7291593758       -5.6119193554      -11.1274212796
 H         1.5707212162       -6.9237104091      -11.3165721220
 H        -4.3229942352       -0.5180359489      -10.5850879202
 H        -2.9551995518        0.6047415253      -10.6959042192
 H        -2.9020625570       -0.7222656978       -9.5515623830
 H        -4.1452630508       -2.8114703634      -11.2926331982
 H        -3.1049293470       -3.2479222727      -12.5334986232
 H        -4.2176955621       -1.9598945515      -12.7170809635
 H        -1.8568431885        0.7555531495      -19.3855427792
 H        -2.0053558281       -0.5684425398      -18.3689865590
 H        -0.7820124990        0.7487212873      -18.0985389826
 H        -1.2356543993        2.4092669480      -16.7456180492
 H        -2.8313886101        3.1455799647      -16.3283847211
 H        -2.2282414904        3.1659074692      -18.1070056941
 H        -8.9573471048       -1.0239256875      -18.5589092270
 H       -10.3195855795       -0.4528056309      -19.5717492260
 H        -9.2468268711        0.7387053269      -18.9287208509
 H        -7.6173190170       -2.5714809301      -20.8397789773
 H        -7.7025990096       -1.5158862520      -22.1724995217
 H        -9.1754373052       -2.0227853433      -21.5581502679
 H        -9.7436316843        2.4805626932      -26.3926945004
 H        -9.0716786805        0.8832914769      -26.7633172623
 H        -8.4686898502        2.4486766329      -27.4845776543
 H        -5.7620667152        1.9295874207      -26.5991901011
 H        -6.3110182580        0.2381079565      -26.1615034052
 H        -5.6060677045        1.3488245264      -24.9657089764
 H        -8.3718589766        4.8063453457      -22.0546781241
 H        -8.3224001156        6.1695137783      -21.1253048579
 H        -7.7553189874        4.5566471046      -20.3991528525
 H        -5.8435324636        7.4797488985      -23.0508393969
 H        -7.0480430243        7.8349564830      -21.6656697850
 H        -7.3615625118        6.9111019960      -23.1306667563
 Na       -6.1420982599        2.6205773589      -20.3112148647
 Na       -0.3378334114       -3.3887875285       -7.3625843835
