232

 C        -4.4028099602        6.9343159595      -20.8092543618
 C        -5.4879337046        5.8396976848      -20.8611905242
 O        -5.5952079518        4.8805364547      -20.0985518469
 C        -6.4992305031        5.8774231493      -22.0749108127
 C        -5.7996214269        4.8010684265      -23.0565543530
 O        -5.5955581135        3.6526929456      -22.6941604718
 C        -5.6451902088        5.1556535243      -24.5088431804
 C        -5.8417460702        3.9543172334      -25.3643294124
 C        -7.2325391988        3.1974490894      -25.0237231152
 O        -8.1064748628        3.8754729864      -24.5673447327
 C        -7.5952023733        1.7068981838      -25.2811965612
 C        -8.2126610277        1.3043810786      -23.8710915985
 O        -7.4830709351        0.7289596310      -23.0780238821
 C        -9.5995596722        1.7006653022      -23.4120774274
 C        -9.9379609814        0.9567510992      -22.1439244967
 C        -8.7929904490        0.9919050322      -21.1471689659
 O        -8.3975439231        2.0760823894      -20.7638990277
 C        -8.3424728954       -0.2992569717      -20.3422895328
 C        -6.8545689678       -0.0574989124      -19.9581017237
 O        -6.1032764425        0.4455121841      -20.7568784659
 C        -6.2927254832       -0.6003646540      -18.6837812507
 C        -4.7983970707       -0.4964398579      -18.5099293268
 C        -4.3945878043        0.8838740263      -18.0454430397
 O        -5.0824036469        1.8352727401      -18.2566429398
 C        -3.0127008708        1.1497716447      -17.2264892617
 C        -2.9996316031        0.4989621566      -15.8284316953
 O        -3.1187452225       -0.7309270216      -15.8296414724
 C        -2.3972945501        1.1443140512      -14.5575817820
 C        -2.9042309466        0.4280141453      -13.3170742327
 C        -1.8371672802       -0.6338605573      -12.8557538675
 O        -0.9127274982       -0.9348526468      -13.5771466814
 C        -2.2356629215       -1.4540910767      -11.5125081628
 C        -1.0380571470       -1.9846180520      -10.6878636232
 O        -1.0285660667       -1.9494113020       -9.4625461875
 C         0.1000537133       -2.7444250089      -11.4609915019
 C         0.9645359527       -3.6884712805      -10.6297789418
 C         0.1122284418       -4.7693109056       -9.9680068509
 O        -1.0928987437       -4.7843350141      -10.0120422906
 C         0.9390244307       -6.0122673727       -9.3565825876
 C         1.7695746851       -5.5324541485       -8.1751854960
 O         1.5976620797       -4.3706059086       -7.8673186112
 C         3.0111387120       -6.3707307196       -7.6030818094
 C         3.1937087645       -5.9747921175       -6.1377766058
 C         2.0635009320       -6.5232202180       -5.2827727504
 O         1.0864114026       -7.0717277534       -5.7648385717
 C         2.1892173097       -6.2082609185       -3.7417033352
 C         2.1807908084       -4.6473678309       -3.3627101722
 O         3.1590025094       -3.9773053683       -3.7255967044
 C         1.0920616395       -4.0305171782       -2.5025299389
 C         0.7790194738       -2.5934252009       -2.9011273025
 C         0.8270328525       -2.2886302573       -4.4044210803
 O         0.1175571735       -2.9391094518       -5.1714689022
 C         1.5020919097       -0.9319013011       -4.9328180216
 C         0.5140522454       -0.2099146298       -5.9055140391
 O         0.4758750807       -0.7205450506       -7.0216888992
 C        -0.1657124186        1.0765506681       -5.5589530725
 C        -1.6942267442        0.8837207188       -5.7475954677
 C        -2.3744137110       -0.0674513445       -4.7001103557
 O        -1.6795742812       -0.6772743365       -3.9531863521
 C        -3.9250039357       -0.2926930975       -4.7965979697
 C        -4.0169908035       -1.4855766749       -5.9452487213
 O        -4.8402021554       -1.2771312616       -6.7703845287
 C        -3.0994143559       -2.6421619165       -5.9500414947
 C        -3.8365059916       -3.9832035979       -6.3734603407
 C        -2.8494472084       -5.1468813939       -6.2900020161
 O        -1.7116814966       -5.0583585468       -6.7570449465
 C        -3.3921741294       -6.3834362490       -5.4385991028
 C        -3.6651979859       -5.8361694604       -3.9668376528
 O        -3.7784763062       -4.6425199684       -3.7905791031
 C        -4.0379395457       -6.9354448623       -2.9085694645
 C        -4.3549621292       -6.5343542504       -1.4378226450
 C        -3.1489192090       -5.9989347474       -0.6022569931
 O        -2.0757771378       -5.8321466052       -1.1261555127
 C        -3.3874597475       -5.8673744943        1.0490244678
 C        -4.4532872150       -4.8125791979        1.2580110541
 O        -5.6487325891       -5.1163328780        1.0757894308
 C        -4.2236823102       -3.3872160910        1.8566127661
 C        -5.5406092690       -2.8491332940        2.4952708636
 C        -5.3676001681       -1.5173822164        3.3275634244
 O        -4.3796433673       -0.8761612399        3.1394049581
 C        -6.5587419504       -1.0787119418        4.3429738049
 C        -6.1361261317       -1.8394540391        5.6152661563
 O        -5.0063148397       -2.2087755895        5.7857808653
 C        -7.0438514919       -1.8042480698        6.9699813622
 C        -6.4539214068        0.4415345475        4.4638365684
 C        -7.9820410753       -1.4915987487        3.8599034874
 C        -3.8155594654       -7.2528062891        1.5742057468
 C        -1.9699554546       -5.4568126067        1.6202537968
 C        -4.8061595785       -6.7732116245       -6.0291899875
 C        -2.3112490342       -7.5458428488       -5.5835738482
 C        -4.3618544474       -0.9865990969       -3.4603966404
 C        -4.6674498664        0.9920230313       -5.2573623292
 C         2.2070458929       -0.0590100263       -3.9115275129
 C         2.6778903083       -1.5183135008       -5.8151579330
 C         1.0878231550       -7.0172739562       -2.9847684996
 C         3.5537964296       -6.8549528318       -3.3175654958
 C        -0.0432506332       -7.1853150868       -8.9330651386
 C         1.9772900080       -6.5023064512      -10.4603547941
 C        -2.9981680713       -0.5417318648      -10.4112946254
 C        -3.1632266963       -2.6732306196      -11.8394545634
 C        -1.8755039931        0.3812371823      -18.0555771071
 C        -2.7462416879        2.6903752397      -17.2073130253
 C        -9.2674827657       -0.4090056437      -19.0832809324
 C        -8.3208954339       -1.4745165934      -21.3654984398
 C        -8.6868156180        1.7689828799      -26.3496552578
 C        -6.4921894787        0.6181658021      -25.5071373898
 C        -7.8881487157        5.2278992361      -21.5603831713
 C        -6.8044910200        7.2501908445      -22.6162659735
 H        -4.7663028597        8.0013320877      -20.8106896792
 H        -3.7336071141        6.8512401710      -21.6307853206
 H        -3.8463240468        6.7861186805      -19.8554459783
 H        -4.7125820591        5.5280137497      -24.6949298004
 H        -6.2980545633        5.8841596932      -24.8478829658
 H        -5.0647926176        3.1660223141      -25.3107670810
 H        -5.9573087278        4.1691190533      -26.4042375871
 H       -10.3699119210        1.5131910764      -24.1606945214
 H        -9.5375121650        2.7750978651      -23.0889350779
 H       -10.0494339790       -0.1104447098      -22.2811592068
 H       -10.8778419233        1.2835797699      -21.7071547018
 H        -6.6547494640       -1.6686020278      -18.5453439910
 H        -6.7247306770        0.0077345967      -17.8652500926
 H        -4.2201428768       -0.9264203148      -19.4401348024
 H        -4.5263935201       -1.1581888679      -17.6794276473
 H        -2.5882866600        2.2111557767      -14.5837436351
 H        -1.3310239563        1.0600710282      -14.6169261567
 H        -3.8358645923       -0.0860531934      -13.4725044136
 H        -2.9913960355        1.1610452254      -12.5369945965
 H         0.7442876728       -1.9585537762      -11.8456489918
 H        -0.4736526039       -3.2603248955      -12.2719504529
 H         1.5113417659       -3.0899774197      -10.0380820985
 H         1.5974972420       -4.2056131753      -11.3500373336
 H         3.8147627174       -6.2080073369       -8.1482681020
 H         2.8585692533       -7.4771132304       -7.6853301833
 H         3.0272603903       -4.8736340709       -5.9005670069
 H         4.2121522800       -6.2018750562       -5.7772936408
 H         1.2819140063       -4.1798388858       -1.3900790158
 H         0.1347800527       -4.6277193327       -2.5683081276
 H         1.5505948397       -1.9933482407       -2.4194975873
 H        -0.2023966346       -2.3595134937       -2.4278802810
 H         0.2083159093        1.8976231339       -6.1370220820
 H         0.1098987632        1.3884335648       -4.6369698792
 H        -1.8576190589        0.3366890987       -6.7036823032
 H        -2.0850420931        1.8660875685       -5.8561339655
 H        -2.7261623079       -2.8441637192       -4.9921650731
 H        -2.2560843934       -2.3955641594       -6.6148326997
 H        -3.9630847328       -3.9706885459       -7.4483383767
 H        -4.7969327434       -4.1818437747       -5.9040435966
 H        -3.2638924934       -7.6254655938       -2.9813027842
 H        -4.9222185488       -7.4097900341       -3.3050884825
 H        -4.7508219305       -7.4651915367       -1.0223486995
 H        -5.2602027650       -5.8267991522       -1.4997455583
 H        -3.8529958304       -2.9103225679        0.9671845664
 H        -3.4687332405       -3.4570760482        2.7080328104
 H        -5.8491941401       -3.6980256315        3.0656248056
 H        -6.3341960433       -2.7944352384        1.7834047302
 H        -7.9199240424       -1.1725428471        6.8519239662
 H        -6.3212018115       -1.2747403127        7.6330769467
 H        -7.3631776740       -2.8154244144        7.2790130553
 H        -7.1304269578        0.9572620724        5.1348293569
 H        -6.6635622166        0.7997689082        3.4562340151
 H        -5.4851281241        0.7234309114        4.8072803153
 H        -8.0978158923       -1.4361379628        2.7328154703
 H        -8.8225150366       -0.8678923451        4.1997401444
 H        -8.0771091431       -2.5255777642        4.1633168911
 H        -3.1799386893       -7.9990339349        1.0473213938
 H        -4.8452508798       -7.4688847637        1.4890647897
 H        -3.5259553911       -7.4721778200        2.6258858179
 H        -1.3356515760       -6.3863009477        1.7152991292
 H        -2.0110012165       -5.0426457805        2.6706236921
 H        -1.5244664125       -4.6945052376        1.0116036239
 H        -4.8293475393       -7.0409096190       -7.0898770274
 H        -5.6393969266       -6.0980009353       -5.8582908001
 H        -5.1887736662       -7.6112767651       -5.4541089862
 H        -2.6049668506       -7.9675711081       -6.6206786286
 H        -2.4955744707       -8.3228582136       -4.8189984507
 H        -1.2806873712       -7.2477797063       -5.6622119400
 H        -4.7298061200       -0.2713002518       -2.7272370912
 H        -3.5729152278       -1.4533887985       -2.7650179434
 H        -5.0998994390       -1.7289039620       -3.5244384924
 H        -5.0601184332        0.7512503129       -6.2751048922
 H        -4.0417222314        1.7951103085       -5.3895008898
 H        -5.3972923061        1.1705021416       -4.5381433670
 H         2.4046334475        0.7816262230       -4.5432556611
 H         3.1612116425       -0.3177653996       -3.4934642275
 H         1.5779996573        0.3002092198       -3.0717246037
 H         3.2508457394       -2.2755337730       -5.3133382924
 H         3.3971158916       -0.8369222319       -6.1729931490
 H         2.2121964954       -2.0295389734       -6.7161601877
 H         1.3344537415       -8.0342250880       -3.2834198675
 H         0.0788802232       -6.8746613375       -3.3464353620
 H         1.1727665110       -6.8943704702       -1.9935502540
 H         4.4440823806       -6.4861222094       -3.8815808065
 H         3.4651854177       -7.8334439549       -3.5563433080
 H         3.5097863453       -6.7686396842       -2.2409031127
 H        -0.7815687619       -6.8298488160       -8.2864446045
 H         0.5863628675       -7.9301862364       -8.5798794194
 H        -0.4503284882       -7.5979099042       -9.8482029758
 H         2.3593933394       -7.5165884629      -10.2053849369
 H         2.8569476817       -5.8859180570      -10.2648657552
 H         1.5729606728       -6.4155808641      -11.4949523288
 H        -3.6619688684        0.1904346839      -10.9292714904
 H        -2.2825977328       -0.0045563573       -9.7800155681
 H        -3.5697195939       -1.1425615444       -9.7856673039
 H        -3.3448648220       -3.3168485421      -10.9294364753
 H        -2.7490851382       -3.3641678554      -12.6317791805
 H        -4.2237597945       -2.4711028357      -12.0430490351
 H        -1.9464923557        0.7362072123      -19.0617066251
 H        -2.1793547486       -0.6530019495      -18.1152524392
 H        -0.7749102630        0.3932967505      -17.9103867722
 H        -1.7759126074        2.8896357346      -16.7379539610
 H        -3.4617052685        3.1644224517      -16.6542558764
 H        -2.7003634636        3.1456349427      -18.1520044482
 H        -9.1537180236       -1.3175713089      -18.5228839162
 H       -10.3324699537       -0.2194877456      -19.3042512251
 H        -8.9526163686        0.3731651664      -18.3865473790
 H        -8.1237049253       -2.5334520322      -21.0432364221
 H        -7.7937391219       -1.1743781703      -22.1949994971
 H        -9.3513162030       -1.6426193808      -21.7865062304
 H        -9.4730577977        2.5874121068      -26.1592289468
 H        -9.1367189940        0.8555518471      -26.6105433025
 H        -8.2737116495        2.0852530127      -27.3499110163
 H        -5.8042748842        0.7541741719      -26.2913437498
 H        -7.0357381202       -0.3062902165      -25.5670876678
 H        -5.8703536728        0.6208606311      -24.6359594856
 H        -8.7211777269        5.4039624953      -22.2763572861
 H        -8.1061418046        5.6915644023      -20.5926825962
 H        -7.7008505251        4.0857291195      -21.5782997307
 H        -6.0075190270        7.6200199744      -23.3119146801
 H        -6.7564030673        7.8594921595      -21.6930309921
 H        -7.7350953548        7.3677280301      -23.1344064301
 Na       -6.0801444795        2.6242648923      -20.3722483809
 Na       -0.3626756740       -3.1799333780       -7.5982563575
