232

 C        -4.4340146138        6.9263051143      -20.7038801352
 C        -5.5473918836        5.9283584691      -20.8808319333
 O        -5.5716032337        5.0579507881      -20.0481810453
 C        -6.5734607604        5.8937597090      -22.0693343428
 C        -5.9139237131        4.8481807326      -23.1270571158
 O        -5.5960400342        3.7699965292      -22.6474640988
 C        -5.4919158241        5.1331856761      -24.5785148118
 C        -5.8020153228        3.8210679049      -25.4204921492
 C        -7.1565450686        3.0870008157      -25.0164545877
 O        -8.0465438498        3.7800286067      -24.5856523353
 C        -7.6417394741        1.5415361057      -25.2523256033
 C        -8.1934154894        1.2758426977      -23.8355755135
 O        -7.4929717682        0.6983625000      -23.0051386791
 C        -9.5971657964        1.8206296369      -23.2977639021
 C       -10.0216574973        1.0904681809      -21.9737663934
 C        -8.8447303919        1.0348597751      -20.9933597958
 O        -8.3144142355        2.0276745309      -20.5418129776
 C        -8.3574681082       -0.2941225757      -20.3045040624
 C        -6.8354473728       -0.0704957666      -20.0353920554
 O        -6.1182919099        0.5347898966      -20.7615553111
 C        -6.3158420344       -0.7151746427      -18.6666448839
 C        -4.8513488316       -0.5860723838      -18.5844567401
 C        -4.4341792896        0.8717690225      -18.0865791584
 O        -5.1770799944        1.7815129466      -18.4327309201
 C        -3.0919774322        1.1419890231      -17.3524065876
 C        -2.9857244955        0.3649638347      -15.8524447597
 O        -3.2836538013       -0.7542367980      -15.8054658229
 C        -2.4519379749        1.1351073099      -14.5471000291
 C        -2.9082035529        0.4067132849      -13.3074821190
 C        -1.9184193676       -0.6323457909      -12.7342670175
 O        -0.9727309912       -0.9632204966      -13.4757515378
 C        -2.1295835399       -1.3946018974      -11.4152540878
 C        -0.9220378023       -1.9823466920      -10.6969687246
 O        -0.8533599102       -1.7802368667       -9.5096799431
 C         0.1686715819       -2.7741142191      -11.4662890218
 C         0.9450042017       -3.7084717445      -10.5985781114
 C         0.0990871870       -4.8724252660      -10.0508704916
 O        -1.1195526344       -4.7053075402       -9.9743715334
 C         0.8695403543       -6.0909976373       -9.3950562628
 C         1.6940141857       -5.5831284110       -8.2192124825
 O         1.5598547176       -4.4272095917       -7.7047148047
 C         2.8497072468       -6.3154802579       -7.6211832557
 C         3.1534827467       -5.7543134319       -6.2496323686
 C         2.0387527763       -6.2749111767       -5.3295356132
 O         1.1208920370       -6.9786138557       -5.7537884495
 C         2.2529821396       -6.2810060700       -3.6856550876
 C         2.3280821651       -4.7553699828       -3.3594330392
 O         3.2482454602       -4.0378007746       -3.7920434854
 C         1.0970579594       -4.1803171273       -2.7186225343
 C         0.9305158646       -2.6334083883       -2.9358934903
 C         0.7389871121       -2.2839283863       -4.4066175705
 O         0.1427382155       -2.9752533141       -5.1774520565
 C         1.5907050864       -1.0410766308       -5.0232639458
 C         0.5882912019       -0.2677536608       -5.9663285545
 O         0.4338927054       -0.6436471687       -7.0972928442
 C        -0.2040160346        1.0011003022       -5.6146837865
 C        -1.7053416627        0.9125075666       -5.6646411998
 C        -2.3358265437       -0.0517346750       -4.6654682460
 O        -1.6517293312       -0.6734522110       -3.8599043388
 C        -3.9604691224       -0.2388406203       -4.7801963605
 C        -4.1462826512       -1.4043107465       -5.8781514254
 O        -4.9743054450       -1.2078158714       -6.7850313719
 C        -3.1448317475       -2.5513494782       -5.9611818184
 C        -3.7959805823       -3.7987450666       -6.5336910618
 C        -2.8328178950       -5.0261562898       -6.3842535804
 O        -1.6718218816       -5.0447295176       -6.7782437750
 C        -3.3574412396       -6.3005183555       -5.4950533012
 C        -3.7146240665       -5.7996546311       -3.9271037853
 O        -3.8491340671       -4.6238983345       -3.6985977464
 C        -4.0474459563       -6.9215217368       -2.8875856718
 C        -4.4035339495       -6.5280283283       -1.4278318949
 C        -3.2041052165       -6.0807208624       -0.6995494479
 O        -2.1314970828       -5.7750635550       -1.2865534238
 C        -3.2566419203       -5.8770332708        0.8754013318
 C        -4.5431998020       -4.7676111278        1.3145137824
 O        -5.7118783863       -5.1102215509        1.1912997920
 C        -4.2846077906       -3.3561920325        1.9340623221
 C        -5.5609109634       -2.9320252906        2.5674539669
 C        -5.3958666076       -1.6425343336        3.3260089353
 O        -4.3404005114       -1.0267025531        3.2397464335
 C        -6.5041520879       -1.1693208431        4.2978788482
 C        -5.9492011091       -1.7749612622        5.7549000972
 O        -4.9266768153       -2.4470044592        5.7125374585
 C        -6.9339957934       -1.7711121930        6.9559461219
 C        -6.6778238314        0.3974412462        4.4193460392
 C        -7.9587021009       -1.6247846787        4.0087173231
 C        -3.5952805434       -7.2541860510        1.3978088251
 C        -1.9802519096       -5.4064283996        1.5489870996
 C        -4.6412794901       -6.8447639087       -6.0017368157
 C        -2.2185340810       -7.3988878837       -5.4583172249
 C        -4.4844445226       -0.8096692521       -3.4299168274
 C        -4.6933091233        0.9743087832       -5.2082779944
 C         2.1639930802       -0.1144636959       -3.8804456550
 C         2.6974248871       -1.5749987894       -5.9484569840
 C         1.0734829987       -6.9519781172       -2.9119692282
 C         3.6356622982       -6.9346300919       -3.4816705648
 C        -0.1295685266       -7.2643480460       -8.8960123915
 C         1.9339853531       -6.6771087304      -10.3546164544
 C        -2.9829560308       -0.5994756493      -10.3396475173
 C        -2.8862254301       -2.6070462377      -11.8852920416
 C        -1.9138052083        0.4169186737      -18.0208739839
 C        -2.7504319284        2.6192104577      -17.0584106356
 C        -9.2065424445       -0.4579285787      -19.1002213007
 C        -8.3119933800       -1.5989218227      -21.1934746771
 C        -8.7318021844        1.5201927924      -26.2801698752
 C        -6.4257261801        0.6426729111      -25.6357796902
 C        -7.9399035116        5.2796457264      -21.7293241641
 C        -6.8319156737        7.3086562702      -22.7401688237
 H        -4.7459671391        7.9719010717      -20.5099701154
 H        -3.7009215309        6.9492446525      -21.4835094003
 H        -3.9561325107        6.5567428235      -19.7498106292
 H        -4.4024480908        5.3076690775      -24.5964290365
 H        -5.9407648901        5.9542098897      -25.0752122413
 H        -5.1030400279        2.9957994572      -25.4592973823
 H        -6.0561963766        3.9909346589      -26.5235079389
 H       -10.4457274383        1.7414835326      -24.0070593821
 H        -9.3706147424        2.8578279143      -23.0159908692
 H       -10.4819496636        0.0837047878      -22.0834643876
 H       -10.7834805521        1.6534846406      -21.4355452971
 H        -6.5993894931       -1.8315753729      -18.6094358290
 H        -6.7903717165       -0.1954534515      -17.7875124014
 H        -4.5423935391       -0.5937215151      -19.6413004642
 H        -4.3422556509       -1.4933600894      -18.1299930829
 H        -2.7318228405        2.1640851784      -14.6215328523
 H        -1.3267050854        1.1352862336      -14.5773202278
 H        -3.7872037606       -0.1887787111      -13.6085602377
 H        -3.1307248542        1.1005565439      -12.5229886364
 H         0.8080654392       -2.0104814748      -11.8681724190
 H        -0.3803425010       -3.2703552919      -12.2426801774
 H         1.1981369354       -3.0111686528       -9.7532950225
 H         1.8420493876       -4.0227013213      -11.1559326647
 H         3.6568306257       -5.9731163921       -8.2722245480
 H         2.8636411739       -7.3570818364       -7.7320512479
 H         3.2154633869       -4.6596793134       -6.1932813386
 H         4.1471435651       -6.1535867807       -5.8696458043
 H         1.2218893352       -4.4225843018       -1.6438372932
 H         0.1053054251       -4.6773404502       -2.9047524391
 H         1.7854939787       -2.1300137612       -2.4442519999
 H         0.0123036502       -2.3849859609       -2.3298892038
 H         0.1403072057        1.7874668822       -6.2904910620
 H         0.0498943641        1.6047301146       -4.6605382214
 H        -2.2074301333        0.6353311200       -6.6830936784
 H        -1.9742093796        1.9338570187       -5.4482959733
 H        -2.7305687335       -2.9284357698       -5.0219961818
 H        -2.3977856764       -2.1300002429       -6.5798060617
 H        -3.9310592514       -3.7982275391       -7.6613649519
 H        -4.7322845568       -4.0507487937       -6.0553239144
 H        -3.2200963186       -7.6334007619       -2.9806711914
 H        -4.9226734267       -7.4272819544       -3.2412007093
 H        -4.7739728265       -7.4924350260       -1.0467419962
 H        -5.2914007750       -5.8777590898       -1.4480568485
 H        -4.1728779073       -2.8366579425        0.9307130968
 H        -3.3670172211       -3.3234422729        2.5372733106
 H        -5.8295266473       -3.7003261684        3.2323635991
 H        -6.3438148764       -3.0208690059        1.8525861399
 H        -7.9653843952       -1.5351730584        6.6559907103
 H        -6.5681766881       -1.1100977664        7.8089411720
 H        -6.9319683852       -2.8239602127        7.1064995871
 H        -7.2920829390        0.7092137098        5.2628078001
 H        -7.0608076304        0.8371957586        3.5077512193
 H        -5.6970763032        0.8234619760        4.7291507015
 H        -8.2876763422       -1.3198730700        3.0081148431
 H        -8.7294777355       -1.1678035477        4.6645989962
 H        -7.9678519795       -2.7258868985        4.0527352359
 H        -2.9569320555       -8.1361692911        1.1068635380
 H        -4.7289900486       -7.4300279995        1.1806735342
 H        -3.5526997546       -7.2883090182        2.4437189159
 H        -1.4651329600       -6.3141182039        1.7530119834
 H        -2.1130747447       -4.9812283526        2.5753819419
 H        -1.3470664251       -4.6905972016        0.9613879519
 H        -4.6812769444       -6.9824417619       -7.0597228131
 H        -5.5263923948       -6.3271113086       -5.7448334750
 H        -4.8898787050       -7.8340124886       -5.4542588364
 H        -2.3528936341       -8.1099989172       -6.2772762747
 H        -2.3117065329       -7.9380653921       -4.4466257464
 H        -1.2165864945       -6.9762527460       -5.5840265833
 H        -4.6638888941       -0.0442789290       -2.7157995345
 H        -3.8777030037       -1.4463446479       -2.8432036323
 H        -5.3977268481       -1.3647196890       -3.4887777462
 H        -5.0902523063        0.6723677275       -6.1469138122
 H        -4.0538258959        1.8086923003       -5.4765718630
 H        -5.4570929784        1.1678239063       -4.5348602334
 H         2.3839594803        0.8000552930       -4.3561577880
 H         3.0140438853       -0.3529735214       -3.3067760406
 H         1.3439675369        0.1289488803       -3.1961656166
 H         3.3537754851       -2.3721231240       -5.5519672051
 H         3.3567093091       -0.8232435609       -6.3187963553
 H         2.2077514165       -1.9620134496       -6.8297946236
 H         1.1270048572       -8.0032812524       -3.0347046286
 H         0.1166115417       -6.7153572980       -3.2700238709
 H         1.2078519169       -6.6551756298       -1.8687543081
 H         4.3860812981       -6.2626275009       -3.8106088372
 H         3.6899248841       -7.8323502595       -4.1892383262
 H         3.6760829772       -7.2001114103       -2.4482045054
 H        -0.8016151344       -6.8045785979       -8.2237487068
 H         0.4954864336       -8.0113311017       -8.4941647989
 H        -0.6534541177       -7.6978175689       -9.7560347771
 H         2.3960807572       -7.5736291840       -9.9489133756
 H         2.7794772853       -5.9088482964      -10.4610527504
 H         1.4264279072       -6.8683912916      -11.2040876852
 H        -3.8363893084       -0.2203703261      -10.7863070992
 H        -2.4096478728        0.1974047842       -9.9042257389
 H        -3.2587369150       -1.2913322907       -9.5284658528
 H        -3.0192172721       -3.4394218244      -11.1321986671
 H        -2.3858122638       -3.0231789960      -12.7778385848
 H        -3.9056984041       -2.4693969729      -12.1124719874
 H        -1.7633530529        0.5844279490      -19.0698028396
 H        -2.0793561506       -0.6253603657      -17.8551931676
 H        -0.8714870551        0.5927152618      -17.6270801967
 H        -1.7159079563        2.7353805154      -16.7305030542
 H        -3.4298808214        3.0692357800      -16.3290157101
 H        -2.8223796508        3.2890502907      -17.9542047477
 H        -8.9030455377       -1.3259202283      -18.5353728782
 H       -10.3586475463       -0.4723071293      -19.3112450372
 H        -9.0164552676        0.2997590064      -18.4188209519
 H        -8.1206790476       -2.5163259902      -20.6618785718
 H        -7.7228245442       -1.4028630884      -22.0591230313
 H        -9.2153556228       -1.8637184392      -21.6184706823
 H        -9.3404734057        2.4316105483      -26.2384492386
 H        -9.4013909424        0.5886103026      -26.3489133741
 H        -8.3398557708        1.4675531980      -27.3350880299
 H        -5.9649140345        1.0148468665      -26.4840130740
 H        -6.7752789866       -0.3398232859      -25.8540974791
 H        -5.6152491214        0.6916829661      -24.8805278308
 H        -8.7979524697        5.6245255282      -22.3965399591
 H        -8.0600782773        5.6605214074      -20.7005039347
 H        -7.8875029832        4.2178756179      -21.7775126181
 H        -5.9353296545        7.6844928436      -23.2907118891
 H        -6.9894227462        8.0299621057      -21.9585144560
 H        -7.6997837276        7.3097651559      -23.4483058464
 Na       -6.1211932030        2.7878916143      -20.5261696212
 Na       -0.3377871785       -2.9909821574       -7.6069124614
