232

 C        -4.7508370550        7.2064859881      -20.7985290300
 C        -5.6946609173        6.0267441527      -20.9987280782
 O        -5.8253689093        5.2454194576      -20.0612889723
 C        -6.4913240172        5.8407218409      -22.2710918949
 C        -5.8202427541        4.7106106156      -23.1748627658
 O        -5.5377758618        3.6568495308      -22.6540944153
 C        -5.6294497535        4.9037873337      -24.6959488028
 C        -5.7733410672        3.5345282471      -25.2726788818
 C        -7.3090581121        3.1064103338      -24.9880402460
 O        -8.0487240400        4.0032748664      -24.6455018256
 C        -7.6978780312        1.5583565888      -25.1020831925
 C        -8.0864912574        1.2150543273      -23.6841786770
 O        -7.4734015020        0.4454026087      -22.9947284747
 C        -9.3974889858        1.7874461332      -23.2390576104
 C        -9.9393396526        1.2069453232      -21.9302276634
 C        -8.8426019274        1.0984072588      -20.8370487614
 O        -8.3988585639        2.1234341118      -20.3518629885
 C        -8.2990162166       -0.3354660421      -20.1775267096
 C        -6.6930897149       -0.2160765862      -19.9099035061
 O        -6.0158876800        0.4966104851      -20.6516256590
 C        -6.1277869217       -1.0609023775      -18.7547427736
 C        -4.6385241519       -0.6117946155      -18.4748390712
 C        -4.3926552793        0.8294935172      -18.1010977143
 O        -4.9163150225        1.8657562515      -18.4496209164
 C        -3.1403571539        1.0310955020      -17.3207435026
 C        -3.3445781535        0.2053278960      -15.8275181114
 O        -3.8308719183       -0.9403979119      -15.7980050049
 C        -2.6728105371        0.9158136791      -14.5707523155
 C        -2.9280641438        0.3264147611      -13.1731063389
 C        -1.7895854674       -0.6406968175      -12.7627732699
 O        -0.7810310563       -0.7461539953      -13.3897555087
 C        -2.0671295327       -1.4499649463      -11.3894899956
 C        -0.7688017535       -1.9268197829      -10.7183911057
 O        -0.4605529529       -1.4799827897       -9.6146167114
 C         0.2471025869       -2.7793297339      -11.5431476234
 C         0.9658481732       -3.7816939101      -10.6553511267
 C         0.0985985042       -4.8112875080      -10.0402399567
 O        -1.0825939854       -4.8214386646       -9.9248591124
 C         0.8125854951       -6.0590518199       -9.4061651124
 C         1.5483001635       -5.5396897927       -8.1455298859
 O         1.1257965200       -4.5349136989       -7.7126239864
 C         2.8835053443       -6.1395533059       -7.6822162659
 C         3.1554787923       -5.8744909531       -6.2199940979
 C         2.1016994758       -6.4421100008       -5.2992436084
 O         0.9927303269       -6.6693970626       -5.7116728127
 C         2.3979516153       -6.3977591503       -3.7529567437
 C         2.3880056114       -4.8317463805       -3.5177599951
 O         3.3587716476       -4.1101453234       -3.7410902541
 C         1.1575543301       -4.2208643415       -3.0200777510
 C         1.1625441853       -2.6473618933       -3.1853904867
 C         0.8213461159       -2.2860223746       -4.5439612870
 O         0.1032976877       -3.0217533940       -5.2385528451
 C         1.5588171848       -1.1034315016       -5.1515062726
 C         0.4938571189       -0.2901540521       -6.0192847319
 O         0.1477919945       -0.6157095630       -7.1507465397
 C        -0.1236093475        0.9390754317       -5.4400718210
 C        -1.6557716807        1.0337948635       -5.6025008540
 C        -2.4591974105        0.0919546214       -4.6060782554
 O        -1.8385158169       -0.5981752663       -3.8407630024
 C        -3.9531516355       -0.0964795446       -4.7320431030
 C        -4.2656553824       -1.2716578125       -5.8639912278
 O        -5.1249621108       -1.1749100049       -6.6461092126
 C        -3.3445969726       -2.4548945436       -5.7489555040
 C        -3.8067792590       -3.6408476312       -6.6291607132
 C        -2.8091977376       -4.8839784440       -6.2830281277
 O        -1.6899570358       -4.8417068126       -6.7584782474
 C        -3.1411857644       -6.0457286724       -5.3879136117
 C        -3.7259641312       -5.7220998233       -3.9189891610
 O        -3.9655771603       -4.5959413362       -3.5496142415
 C        -4.0819878883       -6.8675650805       -2.9772001712
 C        -4.5186384318       -6.2761480744       -1.5682177248
 C        -3.2177398948       -5.8477793623       -0.8258308414
 O        -2.1870847537       -5.5765827520       -1.3756595645
 C        -3.2896998582       -5.7541645945        0.6813375277
 C        -4.5581467508       -5.0892429855        1.2609172808
 O        -5.6691979070       -5.5742839445        1.0642834321
 C        -4.3064789801       -3.6035681412        1.8215363242
 C        -5.5465899311       -3.0566470976        2.6660438698
 C        -5.3315780734       -1.7128304933        3.3773838830
 O        -4.3816920592       -0.9959096023        3.2415469385
 C        -6.4935918964       -1.3873777571        4.3948870276
 C        -5.8828140239       -1.9508858286        5.8293984772
 O        -4.9581708859       -2.6738417499        5.7010476868
 C        -6.6509315050       -1.6066142205        7.1733426651
 C        -6.6349086557        0.1149861001        4.5126085260
 C        -7.8606380467       -2.1873926895        4.1296281029
 C        -3.5686697479       -7.1380910172        1.2941485634
 C        -1.9027626381       -5.1355600085        1.1334099663
 C        -4.3452119819       -6.8541328141       -6.1676485770
 C        -1.8821240299       -6.9604015717       -5.2432071881
 C        -4.4604143260       -0.7182524767       -3.4559647527
 C        -4.6936100544        1.2506659852       -5.1487300503
 C         2.1039566661       -0.0780404279       -4.1061910967
 C         2.7930163422       -1.6288031780       -5.9070849162
 C         1.3182790217       -7.2074505757       -3.0200264924
 C         3.8528070593       -7.0187592574       -3.4202104670
 C        -0.2327266794       -6.9869275334       -8.7683544892
 C         1.6665737263       -6.9473101480      -10.4429824049
 C        -3.0573500781       -0.7108099126      -10.4096664121
 C        -2.8504497884       -2.7597906934      -11.8736706453
 C        -1.9139436133        0.5090104099      -18.1244901473
 C        -2.9556053735        2.6250017608      -17.1011862343
 C        -9.2453315174       -0.5750885628      -18.9310254352
 C        -8.5518377128       -1.4637771413      -21.1305352864
 C        -8.8282008924        1.2162782098      -26.0695645182
 C        -6.4209687009        0.7631006751      -25.5281338951
 C        -7.9057577074        5.5778178651      -21.8875072596
 C        -6.5092888893        7.2576325246      -22.9642515917
 H        -5.3457644404        8.0896819244      -20.5919969190
 H        -4.1794434359        7.3859585101      -21.7209125198
 H        -4.0618493261        7.1055940807      -19.9970608095
 H        -4.6213885432        5.1721457343      -25.1245368185
 H        -6.3918872266        5.6435362407      -25.1462248609
 H        -5.1031229022        2.7725361214      -24.8497669140
 H        -5.6149505772        3.4987553246      -26.3017569843
 H       -10.2047179672        1.5717133145      -23.9113101591
 H        -9.1910398132        2.8710062295      -23.2606521154
 H       -10.4947031406        0.2966660884      -22.1565944442
 H       -10.6966260856        1.8829286368      -21.4757781669
 H        -6.2331324482       -2.0762939869      -18.9801565030
 H        -6.7191646144       -0.8616247257      -17.8989892394
 H        -3.9691548833       -0.8254024094      -19.3138763247
 H        -4.2082205641       -1.1989235348      -17.7385808080
 H        -3.2400787407        1.9134893358      -14.6276224169
 H        -1.6272747699        1.1495841667      -14.7586672424
 H        -3.9385797131       -0.1022207901      -13.1417466084
 H        -2.7783447212        1.1685022790      -12.4303881464
 H         0.9024913091       -1.9341626694      -11.8524282186
 H        -0.1780549259       -3.2581601277      -12.4590612436
 H         1.4641599910       -3.2961167699       -9.8188713526
 H         1.6992576988       -4.2748249591      -11.3482329541
 H         3.7160353272       -5.8314165899       -8.3410725537
 H         2.7821740222       -7.2814309916       -7.9457063026
 H         3.2703408213       -4.8075311610       -6.0628284512
 H         4.0481268685       -6.2967484525       -5.8889021377
 H         0.9524879300       -4.5241929983       -1.9927073333
 H         0.3409664129       -4.6030336067       -3.5889960317
 H         2.1797974646       -2.3701894295       -2.9936767282
 H         0.5730736414       -2.2149943358       -2.4108827853
 H         0.4408576707        1.8297742220       -5.8496756176
 H         0.1295804386        1.1041815391       -4.4649622524
 H        -2.0009451981        0.8696494338       -6.6020865731
 H        -1.8726935020        2.1391446471       -5.4179397978
 H        -3.2285500760       -2.8951412552       -4.7320381589
 H        -2.3101407058       -2.1349088895       -6.1689124942
 H        -3.7128503704       -3.4075646998       -7.6795871100
 H        -4.8115456809       -4.0625727218       -6.3646979022
 H        -3.2254961134       -7.5554940366       -2.8970573914
 H        -4.9443830823       -7.5257670335       -3.3650016130
 H        -5.1915257300       -7.0132460801       -1.2043530829
 H        -5.1681186547       -5.4260256637       -1.7474267681
 H        -4.0354969534       -2.9240572039        1.0427065136
 H        -3.3948361544       -3.8048833427        2.4095559612
 H        -5.9225744743       -3.8940970200        3.3560875032
 H        -6.4338069152       -2.9113792211        1.9778160002
 H        -7.6826344899       -1.4591823623        6.9540827079
 H        -6.1610160251       -0.7339486385        7.4682341634
 H        -6.5644361868       -2.4670818707        7.8540989527
 H        -6.9410513187        0.4433653890        5.5129315465
 H        -7.2912338505        0.5404918234        3.7221041440
 H        -5.6609476085        0.5585167782        4.4274860282
 H        -8.4024327832       -1.9082762303        3.2078566987
 H        -8.5560611278       -2.0756056265        4.9348034180
 H        -7.6548969966       -3.2326821582        3.9899345312
 H        -2.7031973269       -7.7728672967        1.1216717588
 H        -4.4200773113       -7.6406744215        1.0363796407
 H        -3.5852597089       -7.0027445650        2.4553799214
 H        -0.9907849209       -5.6076264219        0.7069775989
 H        -1.8379314911       -5.2634057060        2.1883071986
 H        -1.9074766647       -4.1231228691        0.9131665976
 H        -4.1233291072       -6.9548249595       -7.2424543971
 H        -5.3028973452       -6.2706289636       -6.1646939369
 H        -4.6294110155       -7.7450687403       -5.7243645503
 H        -1.6516844042       -7.5124432940       -6.1651425366
 H        -2.0256863343       -7.6646704139       -4.4976030511
 H        -1.0498672033       -6.3380337907       -4.9734606250
 H        -4.0838960842       -0.4473405664       -2.4741574324
 H        -4.4203473095       -1.8654247425       -3.4120679317
 H        -5.5129172528       -0.6953864216       -3.3515348567
 H        -5.2774198778        1.1869370977       -6.1461294919
 H        -3.9303253891        2.0066275805       -5.2755752867
 H        -5.4347214213        1.4503193316       -4.3230708484
 H         2.4327420611        0.9152358718       -4.4628339617
 H         3.0264131441       -0.5394186737       -3.6700232220
 H         1.4506447033        0.1025345878       -3.2468135850
 H         3.4698718431       -2.1576591798       -5.2809392147
 H         3.3997645459       -0.8621760803       -6.4341661822
 H         2.4822744370       -2.2972701603       -6.7534241754
 H         1.4033288795       -8.2986855304       -3.3136874668
 H         0.2653741728       -6.9943269678       -3.4193692143
 H         1.3994484025       -7.0158834473       -1.9707807573
 H         4.5961684203       -6.1821078231       -3.1238345887
 H         4.1954476661       -7.5893963688       -4.2003768128
 H         3.6527360168       -7.6114671209       -2.5003002945
 H        -0.8987433001       -6.3722600069       -8.1051514150
 H         0.3164244922       -7.8777729894       -8.3455199877
 H        -0.8293324739       -7.3011918477       -9.6457285600
 H         2.3139849952       -7.6460323208       -9.8656130136
 H         2.1854267997       -6.3145637828      -11.1195233197
 H         0.8301104427       -7.5927648813      -10.9111880315
 H        -4.1439431380       -0.9951138469      -10.6067550747
 H        -2.9617749804        0.3701822256      -10.5983010408
 H        -2.7895111923       -0.8860264046       -9.4091383211
 H        -3.0174742932       -3.4834388987      -11.1481573343
 H        -2.4245272266       -3.2119136628      -12.7186289935
 H        -3.8673585037       -2.5640061514      -12.2190630660
 H        -1.8124291302        1.0151576997      -19.0978332646
 H        -1.7915972522       -0.5793387104      -18.2542214152
 H        -0.9792140122        0.6549576767      -17.5959015062
 H        -2.0138630027        2.8228410857      -16.4718303892
 H        -3.8139174052        3.1123926868      -16.6035257544
 H        -2.8040039867        3.1967728262      -18.0309643069
 H        -8.8669851121       -1.2986978148      -18.2040753607
 H       -10.1960556335       -0.8681998292      -19.2527363556
 H        -9.3433811258        0.3015031585      -18.2257678326
 H        -8.2924288825       -2.3677355056      -20.5376310309
 H        -8.0471979965       -1.4590223738      -22.0519603040
 H        -9.5742270129       -1.8599053600      -21.3710953924
 H        -9.6736494548        1.9225880999      -25.9507906516
 H        -9.2245333252        0.2904019098      -25.9366656130
 H        -8.5336434642        1.0846437307      -27.0742307796
 H        -6.0396566896        1.1748060930      -26.5332406772
 H        -6.6704632197       -0.3019663103      -25.7432389823
 H        -5.5940738566        0.9316046685      -24.8576000153
 H        -8.5064291948        5.5038385518      -22.7275963917
 H        -8.2210064753        6.2296209132      -21.1138496432
 H        -7.8153226041        4.5266189981      -21.4431523532
 H        -5.6540881296        7.9125037474      -22.8018409065
 H        -7.3103186302        7.9053983952      -22.5038584837
 H        -6.8291187458        7.1882570874      -23.9875503062
 Na       -6.2380853802        2.9626635157      -20.5713066960
 Na       -0.3659363943       -2.8966773345       -7.4304860768
