232

 C        -5.1013530623        7.4854463533      -20.6128432246
 C        -5.7668773932        6.2100943048      -21.0484134449
 O        -5.8468197735        5.2931703091      -20.2308424923
 C        -6.4239241825        6.1092341629      -22.5650184768
 C        -5.7895851702        4.6865065390      -23.1019283885
 O        -5.5929561921        3.7707464695      -22.3315554852
 C        -5.5377063287        4.6545058257      -24.5947091562
 C        -5.9069255728        3.4537556793      -25.3993797794
 C        -7.3460600032        2.9384506129      -25.1117868981
 O        -8.2107971049        3.8045540593      -25.0524704591
 C        -7.7106302147        1.4205554503      -25.0869591531
 C        -8.2046964171        1.0157691226      -23.5888385648
 O        -7.5139195345        0.3922188792      -22.8431041851
 C        -9.3674265356        1.8710842290      -23.0720023382
 C       -10.0050077932        1.0976910514      -21.8545241214
 C        -8.8365326375        1.0220946273      -20.6862068365
 O        -8.4744456066        2.1088543524      -20.2417987948
 C        -8.3554829980       -0.3160895771      -19.9916108506
 C        -6.7619754466       -0.1980185415      -19.9475193152
 O        -6.0759263092        0.4763460452      -20.7155177818
 C        -5.9859472340       -1.0270968393      -18.8726284768
 C        -4.5052443779       -0.6671069654      -18.7330364177
 C        -4.2425832343        0.7167452668      -18.2144928628
 O        -5.0395995184        1.6216745333      -18.4562607023
 C        -3.1613944096        0.9936395643      -17.0960099741
 C        -3.4984724117        0.3959544006      -15.7255645776
 O        -4.2569589672       -0.5935393858      -15.6816537136
 C        -2.7925343408        0.8222231792      -14.5074657588
 C        -3.1266771443       -0.0857917252      -13.3602332908
 C        -1.8412834149       -0.6151115776      -12.7328496445
 O        -0.7498530354       -0.4796360386      -13.1626788064
 C        -2.0920855711       -1.6089147876      -11.5021882984
 C        -0.7117101397       -2.0773566198      -10.9220515430
 O        -0.2988821725       -1.7695688583       -9.8107839808
 C         0.3557477965       -2.8260362700      -11.7484400149
 C         1.0841036086       -3.8722168898      -10.8876751458
 C         0.0833069931       -4.7129263376      -10.0791986374
 O        -1.1046787143       -4.5752967723      -10.0731404592
 C         0.7298572107       -5.9798013140       -9.2777154845
 C         1.6504399041       -5.4632961249       -8.1231658958
 O         1.4297762806       -4.4078376905       -7.6190431748
 C         2.8541572647       -6.3535831564       -7.8105219921
 C         3.4160628187       -6.2303964360       -6.3896637860
 C         2.3613226531       -6.6043579918       -5.3585183893
 O         1.2708880599       -6.7904771401       -5.8284782449
 C         2.6476129426       -6.5272887585       -3.8691529875
 C         2.4913748200       -4.8806150495       -3.4788060994
 O         3.5084228164       -4.2423101220       -3.5156179200
 C         1.1392523950       -4.3444478075       -3.0301231877
 C         1.1961022782       -2.7229685049       -3.0574886915
 C         0.8894116167       -2.2496757372       -4.4447934658
 O         0.1200188505       -2.8700937627       -5.1826748052
 C         1.5864218709       -0.9484849018       -5.1156689128
 C         0.3803747692       -0.2475770835       -5.7642332637
 O        -0.2058869604       -0.6988728065       -6.7736113929
 C        -0.1869545161        1.1767827691       -5.3148382653
 C        -1.7272899523        1.1787499766       -5.5435061031
 C        -2.5179959330        0.2775437044       -4.5565762762
 O        -1.8704722779       -0.4555974815       -3.8212539365
 C        -4.0748234023        0.1706911397       -4.6140837934
 C        -4.3651773678       -1.0527831785       -5.6915502978
 O        -5.1402760761       -0.9366774472       -6.5536327697
 C        -3.3352698178       -2.2245920328       -5.6940162200
 C        -3.9313822395       -3.5095788553       -6.3267285524
 C        -2.8508562247       -4.6403430397       -6.2362298790
 O        -1.7641195436       -4.4706327373       -6.7241024535
 C        -3.1697112917       -5.8632233071       -5.3326077528
 C        -3.9471665558       -5.4894255384       -4.0669752480
 O        -4.1689175009       -4.3341019360       -3.7617444050
 C        -4.4755107139       -6.6427265424       -3.1917964224
 C        -4.5152589620       -6.2753948628       -1.6499075713
 C        -3.2535389823       -5.7033033275       -1.0491326236
 O        -2.2926736486       -5.4544354824       -1.6909943124
 C        -3.1228892400       -5.6855596929        0.5943227341
 C        -4.4118067887       -5.0555010759        1.1758915949
 O        -5.4600412600       -5.5320205583        0.8394686552
 C        -4.3621521702       -3.7458328551        1.9685693320
 C        -5.6755828162       -3.4632318933        2.6429778791
 C        -5.5425987253       -2.0525893926        3.3528525423
 O        -4.7790233571       -1.2438868346        2.8783992012
 C        -6.4031756268       -1.7593874979        4.5922816238
 C        -5.7159240102       -2.1789316356        5.9479069202
 O        -5.1285839397       -3.2192066796        6.0388798027
 C        -6.0561667710       -1.4063375719        7.1944595638
 C        -6.5983361140       -0.2543118287        4.6235332720
 C        -7.7854430014       -2.5114681743        4.5397547700
 C        -2.9482846437       -7.1946607570        0.9437862551
 C        -1.7546410456       -4.9497134303        1.0132925394
 C        -3.8917548240       -6.8492062101       -6.2822381587
 C        -1.8603514027       -6.6252493065       -4.9003640666
 C        -4.5721779508       -0.2592037869       -3.2130936288
 C        -4.8705891699        1.4773803085       -5.1740300372
 C         2.4518151497       -0.1818264314       -4.1391678332
 C         2.4066771053       -1.3811003989       -6.3894637212
 C         1.6057759986       -7.4896351179       -3.0908409002
 C         4.1411910102       -7.0883460305       -3.5504021692
 C        -0.5555899459       -6.8129024927       -8.7063159614
 C         1.3510604197       -6.9649642398      -10.3345337545
 C        -2.8631439138       -0.8017130979      -10.4067751926
 C        -2.8566829228       -2.8756328241      -12.0018363667
 C        -1.8433548770        0.2985609069      -17.5845318192
 C        -3.0222239211        2.5052747268      -17.1172878166
 C        -9.0390694277       -0.4133220859      -18.5355476825
 C        -8.6602417709       -1.6715332290      -20.6470989192
 C        -8.7810640457        1.2973401042      -26.2282946909
 C        -6.6161132878        0.4917117716      -25.5460830968
 C        -7.9468215830        5.6693159010      -22.4203164961
 C        -6.2451514962        7.3935322656      -23.3255398731
 H        -5.7604043312        8.3276508200      -20.7720598089
 H        -4.0218211091        7.6608435553      -20.9706506938
 H        -4.9606776894        7.4827788428      -19.5579536012
 H        -4.4766303563        4.9178527771      -24.7892558281
 H        -6.2097947891        5.4318013936      -25.0784710131
 H        -5.1935386718        2.6045374881      -25.4666219422
 H        -6.1154169601        3.6847342131      -26.4782793658
 H       -10.0766520482        1.9801763687      -23.9284441479
 H        -9.1477356473        2.8931487476      -22.7202692731
 H       -10.4249298113        0.1334235402      -22.1551596506
 H       -10.8387258855        1.7319660292      -21.5039408164
 H        -5.9860827134       -2.1449871443      -19.0709754471
 H        -6.5308583395       -0.8603769969      -17.8596104229
 H        -4.0145711835       -0.8573269727      -19.6904891979
 H        -3.9933011342       -1.4343363343      -18.0962690894
 H        -3.1225628142        1.8238820030      -14.2020564152
 H        -1.7189241267        0.7900911655      -14.7540430339
 H        -3.6778933216       -0.9640157775      -13.6662136556
 H        -3.7093203976        0.5238350987      -12.6733405996
 H         1.0514851925       -2.1147835898      -12.1799645608
 H        -0.0991242837       -3.2702716492      -12.6025651722
 H         1.8036159495       -3.3844748213      -10.1164540056
 H         1.6925453046       -4.4446310660      -11.6074336910
 H         3.6514513948       -6.2215430679       -8.6141086222
 H         2.4813180389       -7.4012996503       -7.8350476655
 H         3.8365770376       -5.2730760789       -6.0538271021
 H         4.2581358323       -6.9610719180       -6.3392317847
 H         0.9570523980       -4.7545647318       -2.0190616515
 H         0.3279106961       -4.6761260507       -3.7310537987
 H         2.2453561339       -2.4901591902       -2.6752785892
 H         0.5745432994       -2.2086542995       -2.2941624378
 H         0.3925140968        1.9877139719       -5.9489268592
 H         0.0957564892        1.4360835018       -4.2578548550
 H        -1.8477773674        0.9842246149       -6.6065554216
 H        -2.2001138682        2.2468694097       -5.5038919429
 H        -2.9726700327       -2.5042255921       -4.6996422200
 H        -2.5886166291       -1.9082225526       -6.3552127184
 H        -4.2355182894       -3.2840229042       -7.3592416232
 H        -4.7910516902       -3.8667185045       -5.7326922135
 H        -3.8913289108       -7.5538298464       -3.3102856087
 H        -5.4102224279       -6.8912031839       -3.6970263499
 H        -4.9766565765       -7.0633063481       -1.0121271000
 H        -5.2336502874       -5.4747878276       -1.5761347513
 H        -4.0774666380       -2.8523550244        1.3440806921
 H        -3.5842752444       -3.8283649506        2.6952753935
 H        -5.8519979164       -4.3072121411        3.2947837093
 H        -6.5308127932       -3.3238091684        2.0385702447
 H        -7.1715781928       -1.4888886524        7.2513685996
 H        -5.6649203833       -0.4204974050        7.1271606882
 H        -5.5664004430       -1.9700179360        8.0478558985
 H        -7.4585147096       -0.1390426777        5.2914916851
 H        -6.8238485389        0.1835455714        3.6482630255
 H        -5.7835217728        0.3387544677        5.0071413569
 H        -8.2652570916       -2.4207159608        3.5681528639
 H        -8.3933178595       -2.0231692510        5.3099849442
 H        -7.8730314540       -3.6064367871        4.7535932978
 H        -2.1742748220       -7.7634663953        0.4151359046
 H        -3.8698760725       -7.7405997752        0.8288167347
 H        -2.7494389071       -7.1654383102        2.0933392353
 H        -0.9708631800       -5.6632444761        0.6205244287
 H        -1.5591583502       -4.6916960590        2.0583867727
 H        -1.5378836108       -4.1329822348        0.2969400693
 H        -3.2478858216       -7.1473649379       -7.1442908286
 H        -4.7354295127       -6.2557662478       -6.7555377453
 H        -4.2664635876       -7.7382885137       -5.8655113962
 H        -1.0105092601       -6.3402128754       -5.5681356426
 H        -1.9463573171       -7.6879863343       -5.0960731438
 H        -1.6280205847       -6.5200717622       -3.7824362186
 H        -4.0794565342        0.3109902467       -2.4895144624
 H        -4.3433614091       -1.2774431576       -2.9310395881
 H        -5.5714914834       -0.1656585715       -2.9161108653
 H        -5.5667355514        1.1080945855       -5.8747752264
 H        -4.2188214292        2.1335817086       -5.7022425328
 H        -5.4505278414        2.0656433848       -4.4461564707
 H         2.9542188934        0.6971592297       -4.5362982317
 H         3.2316387500       -0.8501956607       -3.7992139940
 H         1.9409074612        0.1607439480       -3.3154474185
 H         3.2224185704       -2.0513939251       -6.1791033006
 H         2.8929413385       -0.4467908508       -6.7826272153
 H         1.9073483127       -1.7792519318       -7.2405321837
 H         1.7413806715       -8.5035041706       -3.3856796104
 H         0.5827755834       -7.1607206152       -3.2186982639
 H         1.8446842374       -7.4721236195       -2.0383588209
 H         4.8119630349       -6.5928813306       -4.2813915151
 H         4.0505891525       -8.1382192131       -3.6911921333
 H         4.5800321555       -6.8115225098       -2.5870052748
 H        -1.0823253482       -6.1524572105       -8.0266736430
 H        -0.0899739184       -7.5647215146       -8.0664224710
 H        -1.1256918605       -7.1606378772       -9.4841226964
 H         1.1874418423       -7.9294856645       -9.9524338935
 H         2.2713254825       -6.6467943394      -10.6074921437
 H         0.6419869024       -6.8386468073      -11.2233218445
 H        -3.7595380727       -0.4488239150      -10.9187254028
 H        -2.3735827933        0.0022111529       -9.9276698712
 H        -3.2081217615       -1.5467513973       -9.7066047433
 H        -3.2341387068       -3.4739215276      -11.1985649886
 H        -2.3837764629       -3.5897112722      -12.6733315702
 H        -3.7657206381       -2.6502335545      -12.6676650504
 H        -1.4768063439        0.7507993788      -18.5059071673
 H        -1.7382847902       -0.7848868027      -17.7108507398
 H        -1.1091755495        0.3949103142      -16.8693212695
 H        -2.0790620651        3.0050890175      -16.8816335033
 H        -3.7994437545        3.0078387378      -16.5401344618
 H        -3.2558937848        2.8743411432      -18.0957633585
 H        -9.1269332405       -1.4385922062      -18.0977923176
 H       -10.0061227936       -0.0899247434      -18.5375958829
 H        -8.4606230072        0.1601156042      -17.7299949502
 H        -8.0011697563       -2.4186361419      -20.2850556919
 H        -8.6432730332       -1.7628709749      -21.7181333783
 H        -9.7039983925       -1.9392532695      -20.3929789003
 H        -9.6940399085        1.8920841277      -26.0028404457
 H        -9.2883763032        0.3221691785      -26.3483608733
 H        -8.3288101416        1.4195540551      -27.2430924015
 H        -6.3006167960        0.8064680994      -26.5638334394
 H        -6.9685107971       -0.5080919477      -25.6378238082
 H        -5.8202100108        0.4930955674      -24.8790490941
 H        -8.1900194544        5.2355044183      -23.3571881370
 H        -8.4799294175        6.6304034766      -22.2163727740
 H        -8.1282864355        4.9943763915      -21.5547272788
 H        -5.3866749309        7.2719751526      -23.9340914184
 H        -5.8421184162        8.2781033789      -22.8318754058
 H        -7.1305765884        7.7886129258      -23.7781201578
 Na       -6.1238835377        2.9115201347      -20.1802375396
 Na       -0.4511998427       -2.8273932162       -7.9030175180
