232

 C        -6.5655079529        7.4357836952      -20.4366713856
 C        -6.1771801433        6.0475562854      -20.9930604927
 O        -5.9446780375        5.1464566039      -20.1810646622
 C        -6.2131209018        5.7863207443      -22.4949065851
 C        -5.9021572811        4.3082995966      -22.9829103334
 O        -5.6965706799        3.2885758156      -22.3328046058
 C        -5.7178170178        4.1667074924      -24.5135683301
 C        -6.0756666504        2.7355739743      -24.9586019519
 C        -7.6076201623        2.4315340847      -24.9004396662
 O        -8.4126954966        3.2217648094      -24.4772045417
 C        -8.0878485837        1.0154309090      -25.2493559853
 C        -8.6567263009        0.4891023844      -23.8986813058
 O        -7.9027728956       -0.2865305292      -23.2844450566
 C        -9.9069404965        1.0531087649      -23.2141862512
 C       -10.0040686820        0.7172267682      -21.6968878787
 C        -8.8427571009        1.3255818306      -20.9096442575
 O        -8.5303099080        2.4728042555      -20.9192553442
 C        -8.1930927706        0.3615381560      -19.7816790544
 C        -6.6346532820        0.1177177388      -20.0926964075
 O        -6.0071503716        0.5819663055      -21.0532313493
 C        -5.6944786264       -0.7553847331      -19.0864697139
 C        -4.2648190132       -0.3343108080      -18.9333619873
 C        -4.0349402404        0.9670187418      -18.1668740113
 O        -4.5131992688        1.9639666208      -18.5559607781
 C        -3.0697506330        1.0580167087      -16.9870219999
 C        -3.8917138209        0.5737110297      -15.6805012427
 O        -4.9860855279        0.0790320607      -15.8010285002
 C        -3.1407505765        0.7821009500      -14.2188765121
 C        -3.3096856050       -0.4400760987      -13.2912120350
 C        -1.9908219120       -0.8270072679      -12.4315123491
 O        -0.9262802996       -0.2526231098      -12.6857735699
 C        -2.1420892269       -1.8613417884      -11.3247386951
 C        -0.6754291298       -2.1728628686      -10.8961389757
 O        -0.2591680837       -1.6581003560       -9.8463989070
 C         0.3012694354       -2.9420660533      -11.8457537933
 C         0.8892622577       -4.2716238448      -11.2873506625
 C         0.1025384183       -4.8925463788      -10.1466066323
 O        -1.0142187102       -4.4982171592       -9.7976526119
 C         0.7815402159       -6.1594667264       -9.4358501804
 C         1.8580997864       -5.5037644438       -8.4899199597
 O         1.8333564622       -4.2981965831       -8.3533777508
 C         2.8066831795       -6.5360321261       -7.8377805164
 C         3.4202453850       -6.0966272215       -6.5328515662
 C         2.5954614181       -6.7574421536       -5.4110516588
 O         1.6566812002       -7.5069867504       -5.6868372150
 C         3.1047039514       -6.4217361091       -3.9433275561
 C         2.9209234370       -4.9007101030       -3.9066297476
 O         3.7934735956       -4.1781180401       -4.4310827556
 C         1.5988278691       -4.4019668979       -3.3726221968
 C         1.3829742766       -2.8992208552       -3.5560252394
 C         1.3356480566       -2.4604131258       -4.9762017394
 O         0.9474027160       -3.2487554186       -5.8048651210
 C         1.5958839654       -0.9725931604       -5.3058309806
 C         0.0829021631       -0.2991560312       -5.6405374201
 O        -0.7230894447       -0.9975083334       -6.2122004953
 C        -0.3275101175        0.9907094567       -5.0123737414
 C        -1.6972075938        1.4276698648       -5.4031046858
 C        -2.6618346223        0.9757489629       -4.1888579747
 O        -2.1952436531        0.3864549283       -3.2377037694
 C        -4.2234406097        0.9271587738       -4.4219484953
 C        -4.3538740754       -0.2706122605       -5.4388255418
 O        -4.6069099153       -0.0418958511       -6.6426648107
 C        -3.8962167603       -1.7095262605       -4.9924242773
 C        -4.2264390448       -2.7854890450       -6.1076076183
 C        -3.1886786057       -3.9698358571       -6.2362740240
 O        -2.0600211809       -3.8605520834       -6.7445675414
 C        -3.5311361758       -5.3324897113       -5.5057217402
 C        -4.4049301554       -5.2257951191       -4.1559338560
 O        -5.0202461883       -4.1920928840       -3.9847703163
 C        -4.4243178494       -6.4478433310       -3.2154887579
 C        -4.5049560486       -6.0721279369       -1.7903514409
 C        -3.2687183582       -5.4153823153       -1.3504225254
 O        -2.4095586416       -4.9934927856       -2.1313947392
 C        -2.9586974945       -5.4608167484        0.2138697997
 C        -4.2459031320       -5.1942437243        1.1054566952
 O        -5.2608139926       -5.8991966255        0.8601844361
 C        -4.0217025551       -4.3497553896        2.3390281745
 C        -5.1867997061       -4.3575976969        3.2827385762
 C        -5.7599111674       -2.9310669192        3.5176456506
 O        -5.5675066839       -1.9885686445        2.7277996860
 C        -6.3848158160       -2.6050640010        4.9199842008
 C        -5.3565578739       -2.8533639478        6.0493989314
 O        -5.6619239573       -3.8423772058        6.7078662316
 C        -4.1144482005       -1.9200256321        6.2352473118
 C        -6.9032496517       -1.1208522591        4.9712306539
 C        -7.5634763620       -3.5684541290        5.0293417791
 C        -2.5463012965       -6.8767085843        0.5906173533
 C        -1.7411204073       -4.3513264154        0.4291446372
 C        -4.1830519059       -6.2509620375       -6.5397367530
 C        -2.2304517194       -6.0517832664       -5.0350368265
 C        -4.8033131529        0.4903543738       -3.0856867443
 C        -4.7650075207        2.2428878000       -4.9631503066
 C         2.2554371511       -0.2424322748       -4.2039034410
 C         2.5800036141       -0.9264240401       -6.5385486524
 C         2.3912289559       -7.4263380186       -2.9749313488
 C         4.6043044461       -6.6641269075       -3.7029608680
 C        -0.3498228238       -6.9734065894       -8.7471713113
 C         1.5795592103       -7.1546186654      -10.3944625760
 C        -2.9493740144       -1.1306377936      -10.1870025857
 C        -2.9049306883       -3.0902122870      -11.7680659340
 C        -1.8709734313        0.0771785237      -17.1658829385
 C        -2.7066265977        2.5839518348      -16.7729185852
 C        -8.2998106988        1.1080237822      -18.4094806276
 C        -8.9236447741       -0.9339641233      -19.5548895717
 C        -9.2429833622        1.1283664921      -26.3009364174
 C        -6.9570788589        0.0931338034      -25.7984063123
 C        -7.6156846799        6.1878806238      -22.8589274637
 C        -5.1250300667        6.7253398509      -23.1776630131
 H        -6.7234174634        8.2047829487      -21.2201612208
 H        -5.8355653450        7.7960997206      -19.7841718565
 H        -7.5152810280        7.3845598908      -19.8418359706
 H        -4.6878494469        4.2969298031      -24.5869508818
 H        -6.1654792742        4.9481697507      -25.0182518212
 H        -5.5008553948        2.1179423734      -24.2454648506
 H        -5.7127588325        2.4939061054      -25.9322941669
 H       -10.7780589401        0.6991507031      -23.7926535794
 H       -10.0306042378        2.1299861449      -23.4010042796
 H        -9.9353539798       -0.3484697792      -21.6622850454
 H       -10.9929561515        1.0450152941      -21.3478807112
 H        -5.5247053413       -1.6759145881      -19.6228554352
 H        -6.1829771704       -0.9418592426      -18.1368897538
 H        -3.8212174450       -0.2065222593      -19.9795721693
 H        -3.7611638599       -1.1836222573      -18.4950376464
 H        -3.5928263272        1.6818470985      -13.7651185738
 H        -2.0887220840        0.9256604160      -14.3943236624
 H        -3.3520112273       -1.3292215642      -13.9099606382
 H        -4.2853492245       -0.4704609102      -12.7776441944
 H         1.1579120265       -2.2713407670      -12.0204257925
 H        -0.2904497443       -3.0304681995      -12.7730697990
 H         1.8639169951       -4.1753289546      -10.9633160591
 H         1.0302466384       -4.9950915210      -12.0931653328
 H         3.5382956870       -6.6883367512       -8.5381030949
 H         2.3184345977       -7.5228602594       -7.6168468168
 H         3.3349885622       -5.0201533388       -6.3763417816
 H         4.4938555945       -6.3709076794       -6.4727451496
 H         1.5527669768       -4.5967663202       -2.2797655201
 H         0.8458711992       -4.8549380653       -4.0425464835
 H         2.0511309791       -2.3729419930       -2.8593778309
 H         0.4493170773       -2.6293639292       -3.0974255413
 H         0.4655316502        1.7704091840       -5.2622376781
 H        -0.4487679928        0.8003979883       -3.9973378483
 H        -1.9552615456        0.8556131753       -6.2221655949
 H        -1.8871763790        2.4727325950       -5.7066981154
 H        -4.4404441504       -1.8944216591       -4.0498901553
 H        -2.8123087415       -1.6733855072       -4.8995032319
 H        -4.2031573576       -2.2263641364       -7.0286475083
 H        -5.2739795600       -3.1151875677       -6.0149955226
 H        -3.5450136171       -6.9819208719       -3.3275791963
 H        -5.2812294361       -7.0758520040       -3.4274444662
 H        -4.9653177079       -6.8917453749       -1.1749516938
 H        -5.3229032958       -5.3023735416       -1.6850056316
 H        -3.6612822674       -3.3278147339        2.0050363939
 H        -3.1352091968       -4.6919065824        2.8579477933
 H        -4.8267447826       -4.7852056211        4.2521656779
 H        -6.0133946343       -4.9492433015        2.8733122729
 H        -4.3921320047       -1.0839338035        6.8535189965
 H        -3.6389798110       -1.5612756211        5.3402093110
 H        -3.3913838611       -2.5381094942        6.7091467637
 H        -7.7356251153       -1.0296601480        5.6843701988
 H        -7.4038099609       -0.8829886909        4.0094982107
 H        -6.1240316686       -0.4294210417        5.2428850667
 H        -8.2315372972       -3.4931466056        4.1700468255
 H        -8.2665261624       -3.3785240853        5.7939939648
 H        -7.2896548419       -4.5702110712        5.1861238589
 H        -1.7749128588       -7.3317688943       -0.0589082692
 H        -3.4568950525       -7.4339894301        0.5828818410
 H        -2.1466074442       -6.8888416772        1.5966546144
 H        -0.9322545386       -4.9139364965       -0.0060076469
 H        -1.4423294668       -4.2060990187        1.4460900399
 H        -1.8873540139       -3.4491048327       -0.0282918288
 H        -3.5253494307       -6.3350075717       -7.4245113388
 H        -5.0882881120       -5.6981769726       -6.8752804726
 H        -4.5311601799       -7.1869585061       -6.1682556022
 H        -2.3747659877       -7.1160197815       -4.7100235059
 H        -1.7611063915       -5.5332051153       -4.2204949349
 H        -1.5311317734       -6.2027657316       -5.7923544360
 H        -4.1166860734        0.5484423379       -2.2217239137
 H        -5.1507027395       -0.5933592943       -2.9626836448
 H        -5.6815698421        1.0344564658       -2.6795039942
 H        -5.6266559586        2.1085527266       -5.7491333013
 H        -4.0149711459        2.7624247417       -5.5480082847
 H        -5.0881148281        2.9959985170       -4.2335815819
 H         2.3115148959        0.7561915417       -4.6519882243
 H         3.3131012265       -0.5028673028       -4.0333326453
 H         1.7274251966       -0.2358257802       -3.2035880383
 H         3.5886076082       -0.9893459462       -6.2456779842
 H         2.4568137904        0.0351230617       -7.0414791034
 H         2.3735018160       -1.6918470446       -7.3492075507
 H         2.4695916922       -8.4716046564       -3.4246337713
 H         1.2759406461       -7.2184486099       -2.8412299453
 H         2.7910065797       -7.3760169171       -1.9956338547
 H         5.2165070301       -6.2831620534       -4.5466559758
 H         4.8158621318       -7.7159969730       -3.7306689407
 H         4.8750383883       -6.2792102824       -2.7366314269
 H        -0.9967551040       -6.3176241980       -8.1267704436
 H         0.1250172542       -7.7197477399       -8.0760977556
 H        -0.8900826344       -7.5562076440       -9.5663734151
 H         2.0205404639       -7.9551284872       -9.7598035225
 H         2.3916973417       -6.4680936329      -10.6800478336
 H         0.9480311070       -7.3755362378      -11.1948840484
 H        -3.9166894249       -0.7183938404      -10.6235302707
 H        -2.3328710470       -0.3523291732       -9.6930872251
 H        -3.2219150982       -1.8580761449       -9.4832406115
 H        -3.3302782513       -3.5586405791      -10.8742074282
 H        -2.3375305000       -3.8338780251      -12.3480946895
 H        -3.8146009398       -2.8034662813      -12.2184976651
 H        -1.4790176315        0.1941299485      -18.2118982927
 H        -2.0406778426       -0.9892953243      -17.1020565028
 H        -0.9574294303        0.4149965402      -16.6196757369
 H        -1.8061304073        2.8073465175      -16.1452292289
 H        -3.4481108190        3.0374682121      -16.1721538439
 H        -2.5906073952        3.1456465755      -17.6837824373
 H        -7.9046385208        0.4492955093      -17.6875949955
 H        -9.3861490659        1.3965046977      -18.0849924620
 H        -7.7602656334        2.0336475168      -18.3817669520
 H        -8.6145651656       -1.3193668246      -18.5099731760
 H        -8.9490920216       -1.7160763008      -20.3111990740
 H        -9.9491400886       -0.5830405529      -19.2735961194
 H       -10.0136216830        1.9191149234      -26.1538789468
 H        -9.6442700558        0.2027649659      -26.5213675466
 H        -8.8835170127        1.4963264509      -27.2456919207
 H        -6.5812642090        0.4047503305      -26.7885430401
 H        -7.4241742378       -0.9269675816      -25.8923339532
 H        -6.0834234688        0.0679327940      -25.1091310322
 H        -7.6407856278        6.1722094008      -23.9426636410
 H        -7.8637427953        7.1870416838      -22.5816085649
 H        -8.3317113784        5.4032993451      -22.4902287049
 H        -4.3739420652        6.5050769462      -23.8829522630
 H        -4.8759854548        7.3905955093      -22.3307863503
 H        -5.6827178245        7.3701377362      -23.8416364480
 Na       -6.2440077632        2.9982406102      -20.0372307001
 Na       -0.2541115598       -2.7614289279       -7.7073071163
