232

 C        -6.7772459579        7.3682584656      -20.5154675376
 C        -6.3704653081        6.0203213888      -21.0080356166
 O        -5.9986645504        5.1010935160      -20.2597417586
 C        -6.1868733832        5.7549383248      -22.5122805098
 C        -5.7816147442        4.2827970536      -22.9771843658
 O        -5.5341769422        3.2973916692      -22.2911553654
 C        -5.6912828277        3.9854791517      -24.5338477669
 C        -6.0790238750        2.5646904916      -24.9482954213
 C        -7.5911571774        2.3468786731      -24.7884397682
 O        -8.2524378608        3.2706183919      -24.3933974240
 C        -8.2639018511        0.9947546457      -25.1295701398
 C        -8.7770730263        0.3162815408      -23.8222987359
 O        -8.1490806248       -0.6781402232      -23.4317741384
 C        -9.9482598773        0.8284573256      -23.0094366972
 C        -9.9615390451        0.5076211920      -21.5256599191
 C        -8.7379124190        1.2302676954      -20.8735483094
 O        -8.2146271747        2.2178223631      -21.3660532835
 C        -8.1280533055        0.5099335333      -19.5885571479
 C        -6.6633353154        0.2654642804      -19.8797395029
 O        -6.1072674428        0.6633439256      -20.9032880420
 C        -5.8707798434       -0.4988477183      -18.7934381296
 C        -4.3476234206       -0.1298286297      -18.8843266769
 C        -4.1156450649        1.1621711014      -18.1229849909
 O        -4.7290186233        2.1447320624      -18.4162360680
 C        -3.0907895502        1.1102197525      -16.8384303932
 C        -3.8745170547        0.4604869939      -15.7221934807
 O        -4.9842864359       -0.0322398243      -15.9098839390
 C        -3.1894792330        0.5433590308      -14.3245621406
 C        -3.3629302074       -0.7161061247      -13.4864734495
 C        -2.1223948549       -0.7914037123      -12.5399580569
 O        -0.9989169844       -0.3333654480      -12.7736213722
 C        -2.2619588977       -1.6540799815      -11.2839627961
 C        -0.7835416807       -2.1858361605      -10.8889407285
 O        -0.4001864594       -2.1134826315       -9.7143205578
 C         0.0910998000       -2.9303352702      -11.9496803617
 C         0.8501197768       -4.0548405496      -11.2543340260
 C         0.0371372201       -4.7981828606      -10.2278655895
 O        -1.1089533570       -4.6460508166       -9.9226098142
 C         0.7974959993       -6.0841317343       -9.5964278957
 C         1.8197797546       -5.6319777569       -8.5545503603
 O         1.6039064639       -4.5733218464       -8.0368071244
 C         2.9794480887       -6.4767063221       -8.0962543462
 C         3.5854446745       -6.2363624565       -6.7014795695
 C         2.7446471634       -6.8086012832       -5.5530774982
 O         1.9067065964       -7.6973066735       -5.7017131563
 C         3.2170651646       -6.3169386733       -4.1221466351
 C         2.9410853296       -4.7257694726       -3.9672962635
 O         3.7567177603       -3.8627125309       -4.3750006467
 C         1.6094528271       -4.3633477006       -3.2573331995
 C         1.3573154049       -2.8255710744       -3.4257515349
 C         1.5645295784       -2.4047777652       -4.9063078262
 O         1.4310751584       -3.3130862546       -5.7308604964
 C         1.7026390419       -0.8796242941       -5.2757480932
 C         0.1721036497       -0.3444897490       -5.6557209209
 O        -0.4722434477       -0.9683914318       -6.4666274703
 C        -0.2027411341        0.9698587837       -5.0784383280
 C        -1.7287419291        1.2567352227       -5.2629784967
 C        -2.6384281789        1.0655150095       -3.9738007968
 O        -2.2426305750        0.8498623129       -2.8386561995
 C        -4.1521501451        0.9443537858       -4.3406962986
 C        -4.2956502594       -0.1496834698       -5.4941887736
 O        -4.5743864572        0.1458353734       -6.6619999939
 C        -4.1700605135       -1.6311240128       -5.1205059925
 C        -4.3381024757       -2.6569958408       -6.3164750224
 C        -3.1971995752       -3.7031353060       -6.1406358541
 O        -2.0415936711       -3.4579850131       -6.4781628858
 C        -3.5518665602       -5.1638740200       -5.6236138763
 C        -4.4381994062       -5.1044307879       -4.2553098070
 O        -5.1820840058       -4.1818995490       -3.9872086495
 C        -4.5514159781       -6.3063384886       -3.3623931611
 C        -4.4700879588       -6.1481813794       -1.8827362979
 C        -3.3112298252       -5.4082979815       -1.4485511184
 O        -2.6598700795       -4.7238507166       -2.2100625463
 C        -2.7705853480       -5.4596759192        0.0726186658
 C        -4.0239728821       -5.3060070958        1.0752512219
 O        -5.1822263623       -5.7738277527        0.8676023389
 C        -3.8998429386       -4.3936515503        2.2604745419
 C        -5.2330450978       -4.5464087164        3.2001014702
 C        -5.7522937070       -3.1929745904        3.7401555427
 O        -5.5976100507       -2.1508665563        3.0936245889
 C        -6.4868108205       -2.9957180706        5.0521935268
 C        -5.3239125850       -3.1068284265        6.0878262989
 O        -5.5281960600       -3.5485989277        7.2089840042
 C        -3.9398545807       -2.3998806619        5.8041104049
 C        -7.0229464512       -1.4799354080        5.1345635601
 C        -7.6757471911       -3.9353055600        5.3705632190
 C        -2.0669593148       -6.9365851046        0.2289329203
 C        -1.6445162810       -4.4764278117        0.3993014156
 C        -4.6498166488       -5.8025391862       -6.6133356742
 C        -2.3439833730       -5.9851188398       -5.4878783654
 C        -5.0465195715        0.5168677580       -3.1004500966
 C        -4.4680516488        2.3413782994       -4.9903322676
 C         2.4822301351       -0.0432484062       -4.1819267993
 C         2.3439255198       -0.7552938439       -6.7321781751
 C         2.5741455028       -7.1644313221       -2.9742117353
 C         4.7219033794       -6.5024430786       -3.8822157320
 C        -0.1870846598       -6.9525423682       -8.8190535724
 C         1.3877312682       -6.9148287749      -10.7830257293
 C        -2.9316211867       -0.9975007867      -10.0372393735
 C        -3.1124951574       -2.9646271054      -11.6555766704
 C        -1.9141819711        0.2030476636      -17.1550421816
 C        -2.5749907313        2.6626411336      -16.5696395138
 C        -8.1426880463        1.5780828756      -18.3422239973
 C        -8.8269199315       -0.7766891556      -19.1267846186
 C        -9.4723534354        1.0740058759      -26.1407774397
 C        -7.2201795985        0.0143371242      -25.7506278851
 C        -7.5869484049        6.1937398823      -23.2989241355
 C        -5.0240182719        6.7022406252      -22.9160009896
 H        -5.8481409191        7.7477289745      -20.0599454751
 H        -7.4393017503        7.4136787464      -19.6615691458
 H        -7.1569842750        8.0395396930      -21.2923399647
 H        -4.5988457921        4.1819648033      -24.7501927356
 H        -6.2859460941        4.6907282302      -25.1703324413
 H        -5.5380032785        1.8008752940      -24.4038589564
 H        -5.7285978551        2.5291498716      -26.0232862504
 H       -10.8092193425        0.3925840272      -23.5550174335
 H       -10.1036176821        1.8845335263      -23.1527123832
 H        -9.8911521409       -0.5843038261      -21.4752975936
 H       -10.9241958678        0.8075877016      -21.0474371835
 H        -5.9282822599       -1.4839104707      -19.1883451009
 H        -6.1820855920       -0.5246607988      -17.7392393858
 H        -3.9698899494        0.0427193147      -19.8516992292
 H        -3.8265892246       -0.9772768967      -18.4186593986
 H        -3.5727223004        1.4405257091      -13.8220272034
 H        -2.0570091631        0.6463109423      -14.3928040726
 H        -3.2609456765       -1.6239137190      -14.1371174400
 H        -4.2834145965       -0.9725905315      -12.9454898950
 H         0.8353807208       -2.1491327985      -12.2328374837
 H        -0.5927056100       -3.1972682553      -12.7555227045
 H         1.8061544953       -3.7438368871      -10.7597230673
 H         1.2345525846       -4.7623430203      -11.9664626001
 H         3.7213278178       -6.2822441531       -8.7534202319
 H         2.7344051880       -7.5547149203       -8.1639062823
 H         3.7324183154       -5.2065376983       -6.5469300052
 H         4.5866947754       -6.7216372586       -6.6787825955
 H         1.6357006322       -4.6757604053       -2.2346832627
 H         0.8124625621       -4.8037134230       -3.8683610673
 H         2.0498001500       -2.2812232096       -2.7790490485
 H         0.4297600609       -2.5314238739       -2.9758725106
 H         0.2304704716        1.7447853893       -5.7075398874
 H         0.0054331124        1.1191220725       -4.0632772243
 H        -2.1357259311        0.7429137695       -6.0978838104
 H        -1.7998265122        2.3524723728       -5.5579357134
 H        -4.8951717572       -2.0142141970       -4.2815038084
 H        -3.1577734519       -1.7461538795       -4.7097013892
 H        -4.3098566637       -2.2238956457       -7.3456818490
 H        -5.2572971327       -3.2364169315       -6.1981181569
 H        -3.7352646165       -7.0459827740       -3.6183109821
 H        -5.5784720439       -6.6684190029       -3.6643377600
 H        -4.6520574457       -7.0612623749       -1.2811889863
 H        -5.3054751060       -5.5460681463       -1.6320523103
 H        -3.6638299875       -3.3376893524        2.0677773978
 H        -3.0521730819       -4.7465129755        2.7403817246
 H        -5.1209648236       -5.2201446485        4.0488025911
 H        -6.0316636236       -4.9686754053        2.5259878875
 H        -4.0202091190       -1.3854855815        6.2736851914
 H        -3.7234693701       -2.2221985487        4.7606180343
 H        -3.0299515589       -2.9380081900        6.2049914601
 H        -7.1169938236       -1.2196939840        6.1880930265
 H        -8.0062754368       -1.5014058463        4.6549843846
 H        -6.3893725515       -0.7234977326        4.7249108171
 H        -8.6389770614       -3.4191365690        5.3094821045
 H        -7.7322236556       -4.2359321128        6.4290953408
 H        -7.8663997789       -4.8678563289        4.7837736119
 H        -1.1848125679       -6.7711361991       -0.4332391748
 H        -2.5816774696       -7.7690520838       -0.1890382589
 H        -1.6348173563       -7.1259297200        1.2927676775
 H        -0.9052369888       -4.2350007768       -0.4375503926
 H        -1.1030009060       -4.8551387381        1.3065704653
 H        -2.1910538009       -3.6293542046        0.7791105781
 H        -4.2984272691       -5.6882779898       -7.6576221432
 H        -5.6868808942       -5.3602120701       -6.5305621799
 H        -4.8161232147       -6.7640555647       -6.2960035369
 H        -2.6130233662       -7.0050623821       -5.0604802947
 H        -1.6973561286       -5.6085906835       -4.7421905053
 H        -1.8097163496       -6.2639300137       -6.4018863808
 H        -4.5094584363       -0.1451366962       -2.4248096407
 H        -5.9231644552       -0.1140525102       -3.4658670557
 H        -5.4180051983        1.3025137364       -2.5094776616
 H        -3.9078932740        2.3450921945       -5.9609862578
 H        -3.8966366262        3.0782718897       -4.5302371151
 H        -5.4744480597        2.6519892270       -5.2131608632
 H         2.3491636918        0.9843282171       -4.4845855806
 H         3.5300063517       -0.2339235135       -4.3170892173
 H         2.2002070954       -0.1768012419       -3.1764543885
 H         3.2440324011       -1.2831459510       -6.8389996498
 H         2.4859915269        0.2844442986       -7.1213885805
 H         1.6424649634       -1.2688536113       -7.4114856817
 H         3.2026150486       -8.0483273163       -2.9066241138
 H         1.5926481660       -7.6699611259       -3.1576954115
 H         2.5103799746       -6.6445366186       -2.0928757684
 H         5.3272248268       -5.6802661974       -4.3967712427
 H         5.1714809368       -7.3078331938       -4.3311316645
 H         4.8593429669       -6.4814341994       -2.7769255948
 H        -0.8991879772       -6.3105481284       -8.3121618394
 H         0.3416820027       -7.6727827614       -8.1991670214
 H        -0.8313813844       -7.5349412007       -9.4824343824
 H         1.6446643930       -7.8473939335      -10.2466302645
 H         2.2821406249       -6.4319219812      -11.1207276755
 H         0.5624614024       -7.1144521830      -11.4902102374
 H        -3.8806448776       -0.5003289735      -10.3207250553
 H        -2.2728385596       -0.2719505790       -9.6165091980
 H        -3.0752774099       -1.7569429350       -9.3214117909
 H        -2.8588267754       -3.8385322556      -11.0776647048
 H        -3.0903423974       -3.1373389161      -12.7299451717
 H        -4.1817939676       -2.8328038842      -11.3434634126
 H        -1.2092025857        0.7319277925      -17.7970595399
 H        -2.1887711129       -0.7588054419      -17.6127714594
 H        -1.3267095128       -0.0631904547      -16.3130559981
 H        -2.2736543229        2.8386470279      -15.4631145270
 H        -3.4396335800        3.3122340829      -16.7233796718
 H        -1.7804171585        3.0546685844      -17.2331347788
 H        -7.2382755717        1.6605230606      -17.7802317670
 H        -9.0797147165        1.4392180991      -17.6982627590
 H        -8.2481625003        2.5646094372      -18.8314678068
 H        -8.4824714114       -1.0085287345      -18.0880684684
 H        -8.8045508371       -1.4910437873      -19.8694717230
 H        -9.9201465513       -0.6030815864      -18.9546080507
 H       -10.3344201377        1.6906823678      -25.6592396850
 H        -9.8170377444        0.1066071183      -26.4104075176
 H        -9.3692057846        1.4724010265      -27.1437309442
 H        -6.6541503717        0.5512923115      -26.5204748767
 H        -7.7806517828       -0.7457792276      -26.2372212423
 H        -6.5125668458       -0.3374369650      -25.0786961691
 H        -7.4768050817        6.2219213436      -24.3401695362
 H        -7.7449536263        7.1976322130      -22.9749429120
 H        -8.4986052214        5.5175667234      -23.1134852430
 H        -4.0780208822        6.2123607701      -22.7473014096
 H        -4.9682752365        7.6001118963      -22.2296205555
 H        -4.9288861011        6.9563332234      -23.9423209223
 Na       -6.2038383004        2.8533563573      -20.2655050159
 Na       -0.2153628776       -3.2577962208       -7.6658900558
