232

 C       -19.9695253890       -4.8019919764       -5.5287638524
 C       -19.7480678413       -5.6512887112       -4.2439780890
 O       -18.6472842111       -6.2487756843       -4.1689615472
 C       -20.8589887839       -5.6935330274       -3.1409474092
 C       -20.1905390605       -5.1777897919       -1.8499508262
 O       -19.6272925779       -5.9748018645       -1.1418952795
 C       -20.3359771737       -3.6787724421       -1.3052731312
 C       -19.0186366536       -3.4556801097       -0.4763130437
 C       -17.8337931826       -3.7480985805       -1.4625405115
 O       -18.0380684285       -4.0227082449       -2.6407600973
 C       -16.4148334559       -3.7753182438       -0.8277839323
 C       -16.0946083066       -5.3156983541       -1.0671593069
 O       -16.8124029264       -6.1457294584       -0.5889872945
 C       -14.9468210658       -5.8718890484       -1.9140839512
 C       -14.4398230271       -7.2460681242       -1.3125575508
 C       -15.0370118944       -8.4141146067       -2.1636451848
 O       -16.1845882420       -8.2660087784       -2.6161116846
 C       -14.1467491331       -9.6895163267       -2.6690489383
 C       -12.8381978095       -9.1811667076       -3.4082998948
 O       -12.9071130264       -8.0248671627       -3.8089372448
 C       -11.6335285464      -10.0605131154       -3.6586085253
 C       -10.5682324994       -9.2956556721       -4.3516996912
 C        -9.1087322993       -9.7558195614       -3.7826730854
 O        -9.0589128978      -10.1511691815       -2.6477537644
 C        -7.8407029218       -9.7010679280       -4.7685137569
 C        -7.4963641252       -8.2550808697       -5.1399751039
 O        -7.6902838290       -7.4565819846       -4.2160553105
 C        -6.7158677356       -7.9046476298       -6.4433876598
 C        -6.7145070581       -6.3865996160       -6.7593485232
 C        -7.7673343775       -5.9925258829       -7.8024052479
 O        -8.4349769767       -6.8088346340       -8.3943911441
 C        -7.8443509030       -4.4384233247       -8.0694875538
 C        -6.5916596593       -3.9838742488       -9.0387399383
 O        -5.5387782438       -3.7155615384       -8.5147105507
 C        -7.0218375334       -3.6561482877      -10.4705622335
 C        -5.7839017260       -3.6716628660      -11.3971219162
 C        -5.7734485529       -3.4253455331      -12.8987746958
 O        -6.8410030020       -3.2180721459      -13.4401108117
 C        -4.4490036158       -3.2988401424      -13.7354555012
 C        -3.5992502003       -2.0800033225      -13.1630163977
 O        -4.0980982204       -1.3089021225      -12.3691464038
 C        -2.1521915905       -1.8437709454      -13.6433597795
 C        -1.1597010180       -2.4089098463      -12.7339851125
 C         0.3106886285       -1.8662560798      -13.1851215872
 O         0.4583831892       -0.8216773352      -13.8386018399
 C         1.4530508331       -2.6408604452      -12.5116913284
 C         2.5240953021       -1.4661311758      -12.1781884809
 O         3.6422463216       -1.3654615110      -12.5808778900
 C         1.9376350140       -0.1676583989      -11.4334903239
 C         3.1203850573        0.6787658412      -10.8336941344
 C         2.9308778939        2.1955257709      -11.0706829117
 O         1.9230362001        2.5479735288      -11.7098002228
 C         3.8767743692        3.1938837429      -10.3427054017
 C         4.4092289542        4.0820311795      -11.5933070430
 O         5.5295637740        3.8475916716      -11.9193538199
 C         3.5150771196        5.2131314509      -12.2001448070
 C         4.1424894397        6.5920073348      -11.8547064406
 C         5.3212824821        6.6621818403      -12.7738060391
 O         5.2683323621        6.2556981386      -13.8965098891
 C         6.5428859772        7.4918921842      -12.3036022560
 C         7.7155865418        7.5610898586      -13.3194712089
 O         8.0874772495        8.6140762877      -13.7573971527
 C         8.5309238489        6.2392747057      -13.6464077147
 C         9.1909981927        6.3415045006      -15.0849985093
 C         8.1999449941        5.9944409391      -16.2179711148
 O         7.0902790064        5.5679510104      -16.0033702024
 C         8.5815957721        6.4076854746      -17.7442105909
 C         9.0147519977        5.0868739157      -18.3792965962
 O         9.2253008722        4.0555102882      -17.7583480619
 C         9.5248157381        5.1049838309      -19.9859199656
 C         9.7007659354        3.5940738156      -20.4306922790
 C         8.3282269785        2.9076923746      -20.3999179149
 O         7.2356830586        3.4378385458      -20.0562423309
 C         8.1366006417        1.3226027131      -20.6316567422
 C         8.3280798315        0.5042802420      -19.2481881945
 O         9.1343718011       -0.3004763809      -18.9989890310
 C         7.4521713151        0.9485793489      -18.0283744809
 C         8.2366848176        0.7083491641      -16.6991506297
 C         7.4847121459        1.3589739735      -15.5980061866
 O         7.6803125502        2.4714497524      -15.2140856367
 C         6.3947199175        0.4768819578      -14.8488295924
 C         5.0313319660        1.2736829805      -15.0746745687
 O         4.8952896449        2.4815284659      -15.0338448368
 C         3.7974039482        0.4824063157      -15.3423825617
 C         6.3465579771       -0.9133202560      -15.4239194532
 C         6.7110319527        0.5112402430      -13.2646279547
 C         6.6291005201        1.0113731226      -21.1175623758
 C         9.1895845964        0.6382969374      -21.6728433663
 C         7.4124049336        6.9562108043      -18.6528537120
 C         9.7016920586        7.5001081972      -17.8507406402
 C         6.1958472161        8.9388037961      -11.9072554283
 C         7.0497146068        6.6738762800      -11.0348178752
 C         2.8908741263        4.0985288932       -9.5298641324
 C         4.8977137225        2.6363345254       -9.4135102309
 C         1.0364244976       -3.1669099337      -11.0854752690
 C         2.0279606694       -3.6507875348      -13.4229065091
 C        -3.4594958543       -4.4787497963      -13.7325773068
 C        -4.8596326835       -3.1053045789      -15.2233646372
 C        -9.2886772616       -4.2358053582       -8.6318556004
 C        -7.6100965574       -3.6793589501       -6.7598633585
 C        -6.6865265158      -10.4569789010       -4.1167121809
 C        -8.3387081352      -10.5387971439       -6.1099606612
 C       -13.8001899270      -10.5559049378       -1.3935819897
 C       -15.0153791532      -10.5983457570       -3.5747951645
 C       -15.4801316082       -2.8334524156       -1.5930975264
 C       -16.4437930479       -3.3786123225        0.6739866497
 C       -22.2014193571       -5.0429015684       -3.4304414410
 C       -21.1792554910       -7.1637998880       -2.9615049090
 H       -19.9161113301       -3.7537258014       -5.3169806552
 H       -21.0380207683       -4.9773229977       -5.6858716561
 H       -19.2519817993       -5.1130883414       -6.2199797999
 H       -21.1996756308       -3.6201255631       -0.6300318659
 H       -20.5123417478       -3.0010689062       -2.1304654637
 H       -18.9016322744       -4.2816410630        0.2503052134
 H       -18.8829443697       -2.4931218225       -0.0172255051
 H       -14.1435012593       -5.1630988563       -1.9516963090
 H       -15.2998469571       -6.0581418516       -2.9661149597
 H       -14.6950780217       -7.3201430978       -0.2260283751
 H       -13.4214171299       -7.1734273484       -1.3918611963
 H       -11.9794881858      -10.8797762039       -4.2845014264
 H       -11.2023893935      -10.4763133936       -2.7278195783
 H       -10.5438600355       -8.1986798447       -4.2464908915
 H       -10.4908196624       -9.5779282359       -5.4491913781
 H        -7.2857902464       -8.3941867859       -7.2692335078
 H        -5.6986125993       -8.3381152871       -6.1951043225
 H        -5.7645712836       -5.9259267377       -7.1036274495
 H        -6.9121527600       -5.7950756478       -5.9178584709
 H        -7.5023873245       -2.7540219506      -10.4141041256
 H        -7.7603376827       -4.4389476926      -10.6865489308
 H        -5.1945115609       -4.5362614716      -11.2342463221
 H        -5.2615103036       -2.7686859462      -10.9466094875
 H        -1.9303969402       -0.7309222027      -13.7645770328
 H        -2.0924777712       -2.3017357066      -14.6257499864
 H        -1.3233224373       -3.5703615440      -12.5606824674
 H        -1.0807135709       -1.9619464594      -11.7377076840
 H         1.2162816757       -0.3428372017      -10.6355598698
 H         1.5072500622        0.4467162576      -12.1996414855
 H         4.0414333742        0.4147623902      -11.3781858063
 H         3.2498644767        0.3762694247       -9.7357508215
 H         2.4121168244        5.0448160585      -11.9423351969
 H         3.6568703000        5.2126371275      -13.3126000683
 H         4.3707708798        6.7625484423      -10.7280836662
 H         3.3885750946        7.4152037298      -11.9825119013
 H         8.1298180222        5.2627489034      -13.4002913838
 H         9.4285279506        6.3099929438      -13.0399185974
 H        10.0424596648        5.6419612786      -15.1594149961
 H         9.5912770105        7.2711474712      -15.3256769747
 H        10.4683113897        5.6470589452      -20.0539207129
 H         8.8138744071        5.5515807325      -20.6502193717
 H        10.4192407113        3.1103311775      -19.6880644270
 H        10.1651496509        3.4303054748      -21.3595492067
 H         6.4724482760        0.6050116013      -18.2401001406
 H         7.3348529210        2.0575556286      -17.9976234008
 H         9.2900989831        1.0381207668      -16.9525848053
 H         8.3414673538       -0.4090024070      -16.6341168263
 H         3.7741869472        0.1544763492      -16.4009544322
 H         3.0065661745        1.2190714267      -15.3192892702
 H         3.5971065023       -0.5093470400      -14.8145226933
 H         5.6850686412       -1.4882993691      -14.7879402510
 H         7.2900775995       -1.3938197933      -15.3198738218
 H         5.8274473809       -0.8096180621      -16.3317603140
 H         5.8933744677       -0.0030276788      -12.7144365400
 H         6.8984451823        1.4678761921      -12.7990049358
 H         7.6897870955       -0.0984281680      -13.0733709573
 H         6.5523018381       -0.0815976490      -21.2574771488
 H         6.4446273955        1.6564352706      -21.9903318232
 H         5.9001514756        1.3521155620      -20.4034081245
 H         8.7889200130       -0.3742283396      -21.9488197915
 H        10.1782902847        0.3583686756      -21.2290476400
 H         9.2116730870        1.3208398724      -22.5393924171
 H         7.1545057685        8.0152578879      -18.3741182149
 H         6.4882787094        6.3909179465      -18.4621304192
 H         7.7422073097        6.9976557948      -19.6778936116
 H        10.6909936787        7.3248017455      -17.4538822522
 H         9.3861353904        8.2855071886      -17.2116907873
 H         9.7170188903        7.7674107425      -18.9057079373
 H         7.1026779104        9.5457611331      -12.0615471244
 H         5.8285304870        9.0764061953      -10.9077018140
 H         5.5562172787        9.4871973658      -12.5277496827
 H         8.1274507971        6.7266493628      -10.7824948118
 H         6.7962666676        5.6619682287      -11.1229836836
 H         6.5661162644        7.0660646987      -10.1601673897
 H         2.9748533451        3.9002444966       -8.5291408912
 H         1.8483781567        3.9884121138       -9.7913566408
 H         3.0295131632        5.2015251793       -9.6174305833
 H         5.8148855200        3.1928764190       -9.5422742055
 H         5.0015502805        1.5569752300       -9.6069808865
 H         4.6180189386        2.8875923375       -8.3692072251
 H         0.5341242766       -2.4904927056      -10.3829130813
 H         1.7895190289       -3.5781451198      -10.4094062970
 H         0.3608953450       -4.0452049650      -11.2023417923
 H         1.5308764301       -4.6515233543      -13.3653843778
 H         3.0731428462       -3.8273258151      -13.0810040930
 H         1.9009338537       -3.4023994863      -14.5327032034
 H        -2.7601180141       -4.5513122765      -14.5723393920
 H        -3.9440924292       -5.3989489438      -13.6162286381
 H        -2.7757592972       -4.4293799859      -12.8679325706
 H        -4.0957674967       -2.7387792466      -15.8569594827
 H        -5.7334960724       -2.4559990234      -15.1573392217
 H        -5.1948813173       -4.0082893650      -15.6480310351
 H        -9.5121277004       -3.2249117926       -8.3101264129
 H       -10.0026208901       -4.9159175781       -8.0914923233
 H        -9.3449369877       -4.2525160798       -9.8088036406
 H        -8.4714032726       -3.7797797113       -6.1127753156
 H        -7.6485965794       -2.6074424203       -7.0536406363
 H        -6.6284572424       -3.9519489226       -6.3715162076
 H        -6.6926137334      -11.5028697114       -4.4516680223
 H        -6.6745577457      -10.4751688861       -2.9996275793
 H        -5.7046189418      -10.0420004055       -4.3892273519
 H        -8.7748648688      -11.4305852535       -5.8429186425
 H        -7.5742662788      -10.9146821596       -6.8264478215
 H        -8.9116286029       -9.8576754715       -6.7623665307
 H       -13.3003145484       -9.9857672969       -0.6195745069
 H       -13.0379720463      -11.3304364413       -1.7743883455
 H       -14.6962453571      -11.0634262156       -1.1324988508
 H       -15.2723365871       -9.9980712561       -4.4339627866
 H       -15.8844157318      -10.8567495215       -3.0760800894
 H       -14.4071433909      -11.4049017430       -3.7941618908
 H       -15.5597626717       -2.9238416180       -2.6999289561
 H       -14.4703009894       -3.1035472890       -1.2216240221
 H       -15.6542357083       -1.7993766995       -1.3516034914
 H       -17.1283983793       -3.9828153435        1.3197967438
 H       -16.5477512781       -2.3294421191        0.7515621723
 H       -15.4158224461       -3.7070543831        1.0414439261
 H       -22.1718635394       -3.9426178027       -3.2898330160
 H       -22.9587753685       -5.4874013580       -2.7891679017
 H       -22.3935497731       -5.1261774975       -4.5012509998
 H       -21.7988796455       -7.3553503983       -2.0619415393
 H       -20.3273528481       -7.8319040595       -2.9129875476
 H       -21.7023902126       -7.4049824496       -3.8910354797
 Na      -18.1162421172       -7.1742889499       -2.1904855600
 Na        6.3254182886        4.1793295620      -14.3880955839
