232

 C        -6.9816026541        7.3260626362      -20.7303296136
 C        -6.4506440963        5.9590097861      -21.2012206663
 O        -6.5001432342        5.0493916631      -20.3617750389
 C        -6.0777763341        5.7771184872      -22.7182388160
 C        -5.6424725438        4.3459445177      -23.1083496639
 O        -5.1148443903        3.5435979710      -22.3474242257
 C        -5.8157819457        3.9521931549      -24.6384372304
 C        -6.1210148769        2.4404212482      -24.9090143293
 C        -7.6051427968        2.2776863319      -24.5718886805
 O        -8.3550005515        3.2278944847      -24.3778071149
 C        -8.3361597415        0.8851617291      -24.9948859572
 C        -8.8395038202        0.0785811825      -23.7350114047
 O        -8.3695170613       -1.0194228882      -23.4534450710
 C        -9.8392638140        0.8391698252      -22.8634795548
 C        -9.8051092165        0.4269970416      -21.4264276680
 C        -8.7115620910        1.0451455593      -20.7176717689
 O        -8.1817215381        2.0464489295      -21.2261653775
 C        -8.2224337663        0.5967002319      -19.3509570179
 C        -6.7188993120        0.1582845602      -19.6274494429
 O        -6.2860146157        0.4635667084      -20.6922983255
 C        -5.8539676899       -0.6562592055      -18.5881720567
 C        -4.3780330943       -0.1749760626      -18.7154055235
 C        -4.2143437318        1.1266426222      -18.0552210218
 O        -4.7438461410        2.1934231983      -18.4378975941
 C        -3.1614120857        1.2993595806      -16.8663851338
 C        -3.7722181916        0.5424902665      -15.6704467598
 O        -4.6982426700       -0.2226866899      -15.8325025915
 C        -3.2352322779        0.6464255698      -14.2467432365
 C        -3.4574168527       -0.6805348087      -13.4476056308
 C        -2.3123531191       -0.9285444928      -12.5363788880
 O        -1.2426714294       -0.3897307538      -12.7569723244
 C        -2.4074226709       -1.6847763555      -11.1946326994
 C        -1.0486405316       -2.1693197456      -10.7309156073
 O        -0.6513683103       -1.9475242598       -9.5991571173
 C        -0.1386845311       -3.1404799740      -11.6854892526
 C         0.9402756928       -3.9660082328      -11.0691165089
 C         0.2082379033       -5.0894452285      -10.1870966656
 O        -0.9543871435       -4.9160537576      -10.0585359656
 C         0.9487446083       -6.4035618373       -9.7446785161
 C         1.9106568707       -5.8876365330       -8.5402059357
 O         1.6339878378       -4.8043931906       -8.1029259594
 C         3.1158943744       -6.7509282403       -8.1990122890
 C         3.8228988552       -6.2585733728       -6.9405248689
 C         2.9883286271       -6.5891071537       -5.7274177939
 O         2.0642555966       -7.3741845572       -5.8965146200
 C         3.3892461164       -6.1600196262       -4.1951246656
 C         3.0748046078       -4.6775159567       -3.9634613932
 O         3.7452836190       -3.7204328290       -4.4180840168
 C         1.9193413143       -4.3132527868       -3.1137652838
 C         1.5646946901       -2.7686952305       -3.4414728393
 C         1.5733951010       -2.3879170097       -4.9079748283
 O         1.1471692875       -3.1606739258       -5.7839249418
 C         1.8280821348       -0.8701461341       -5.3728939556
 C         0.3521502742       -0.2603007773       -5.6250497004
 O        -0.3359943768       -0.8353356646       -6.4501082172
 C        -0.2043876815        0.8903939475       -4.7709783635
 C        -1.6085393030        1.3890424447       -5.2092400276
 C        -2.7031060419        1.2912315625       -4.1340723087
 O        -2.2674149077        0.9216696995       -3.0344515459
 C        -4.3166306976        1.1745562733       -4.3947066814
 C        -4.4210812988       -0.0051034849       -5.5019748926
 O        -4.5505216647        0.3364709448       -6.6428683950
 C        -4.2986497695       -1.5035812490       -5.0504747681
 C        -4.3503506029       -2.5085956562       -6.2039238725
 C        -3.3258063584       -3.6083585759       -6.1342753756
 O        -2.1402683148       -3.4023705222       -6.2947444999
 C        -3.8445588140       -5.0727524708       -5.8354751893
 C        -4.4819458403       -5.0745111223       -4.2223387244
 O        -5.1762219756       -4.1581021182       -3.8623540798
 C        -4.5030049679       -6.3894606357       -3.4482817050
 C        -4.5305850093       -6.0151302689       -1.9770908775
 C        -3.2642573267       -5.2217548830       -1.5358677940
 O        -2.7084711125       -4.4423061556       -2.2761891308
 C        -2.9312816257       -5.4452621338        0.0146583314
 C        -4.1274713796       -5.3899997181        1.0085912323
 O        -5.0113023459       -6.2517400206        0.8681155838
 C        -3.9971357199       -4.4489911680        2.1977197162
 C        -5.2148418921       -4.6808460444        3.1254244896
 C        -5.6479494758       -3.3441577697        3.7585946668
 O        -5.6678257735       -2.3880024266        3.0135221583
 C        -6.2140105257       -3.2374911477        5.1327469618
 C        -5.1297185808       -3.1351461759        6.2929924908
 O        -5.4302044234       -3.3836024544        7.4603964776
 C        -3.7216330676       -2.8405169437        5.9382966292
 C        -7.1640048413       -2.0146875917        5.3337203062
 C        -7.1510113698       -4.4594562906        5.3633705121
 C        -2.2272269924       -6.8131392746        0.2674108273
 C        -1.8047121410       -4.2793901270        0.3456678289
 C        -4.9639975246       -5.4740224370       -6.8552189409
 C        -2.6426802135       -5.9986882465       -5.9122535649
 C        -4.9474141442        0.6966305339       -3.0084633563
 C        -4.7817427162        2.5038147254       -5.0167530321
 C         2.6217407670        0.0755967594       -4.3823353077
 C         2.5964921190       -0.9508361737       -6.7416035834
 C         2.6947454686       -7.0925796679       -3.2450593740
 C         4.9574866532       -6.5183446505       -4.0763661618
 C        -0.2175215502       -7.2462213664       -9.0165977247
 C         1.6881294796       -7.2603686870      -10.7868689987
 C        -3.0287657023       -0.5593900793      -10.2329498584
 C        -3.4401365262       -2.8724614804      -11.2701315569
 C        -1.8346187668        0.6287942784      -17.3741288558
 C        -2.8026927433        2.7949748957      -16.4586748391
 C        -8.2927287020        1.8650043650      -18.4558111009
 C        -8.9886105669       -0.6586575996      -18.7198008679
 C        -9.5540888215        1.3825303072      -25.8993112960
 C        -7.4245953938       -0.0385113451      -25.8268676551
 C        -7.3781288413        6.2049573732      -23.5516732127
 C        -4.8734020239        6.7893632627      -23.0536708241
 H        -7.4035563677        7.3561181695      -19.7272421312
 H        -7.7703367340        7.7999659129      -21.3805036762
 H        -6.1943043150        8.0261749426      -20.8800155871
 H        -4.8226309509        4.2670473143      -25.0857097193
 H        -6.5419613338        4.6422806462      -25.1570110042
 H        -5.3622575476        1.8187164690      -24.4643076464
 H        -5.9771948849        2.3502117207      -26.0319284335
 H       -10.8463852364        0.4921317038      -23.2069049388
 H        -9.7468335256        1.9109990057      -23.0618290558
 H        -9.7977554552       -0.6846269796      -21.4123913880
 H       -10.7545312580        0.6946814596      -20.9700214881
 H        -5.9609437437       -1.7838765052      -18.6929465107
 H        -6.3178305955       -0.4832804429      -17.5397625592
 H        -4.3218483430       -0.1165302587      -19.7962141446
 H        -3.5519900600       -0.8754353975      -18.3037361365
 H        -3.6967235279        1.4174731369      -13.6735389271
 H        -2.1715516833        0.9552841344      -14.2402054785
 H        -3.7531599559       -1.5586704105      -14.0237095202
 H        -4.2362194519       -0.5642469668      -12.7362254834
 H         0.2841226566       -2.4911169601      -12.4336420589
 H        -0.8179216492       -3.8076944454      -12.1417863704
 H         1.7992956685       -3.3795955640      -10.5128496670
 H         1.4485258497       -4.4168913983      -11.9407078319
 H         3.8287143389       -6.7525492780       -9.0847947295
 H         2.7163145980       -7.8678108753       -8.0982316367
 H         3.9086603544       -5.1682759441       -7.1029594649
 H         4.8506902111       -6.6895732373       -6.8196100330
 H         2.1290385054       -4.4597326434       -2.0289868641
 H         1.0818316889       -4.9901155788       -3.4098827432
 H         2.1353616485       -2.1283633113       -2.7246843508
 H         0.4665364899       -2.5721104410       -3.1734589553
 H         0.3269676869        1.8269931406       -4.7570849832
 H        -0.4400065740        0.5298471752       -3.6661490547
 H        -1.8666589403        0.9907900716       -6.2467123681
 H        -1.5032735306        2.4872155009       -5.3265795043
 H        -5.0713941670       -1.7668285863       -4.2905827278
 H        -3.4484225426       -1.5740993837       -4.4450842467
 H        -4.2080647018       -1.9313101881       -7.1232608577
 H        -5.2607786534       -3.0421871039       -6.2763507414
 H        -3.6442569809       -7.0708110633       -3.6928815974
 H        -5.4095510763       -6.8058920585       -3.8039796295
 H        -4.6981241825       -6.9106577333       -1.3365735891
 H        -5.3992756720       -5.3904700237       -1.8238024357
 H        -3.9135475647       -3.3853826979        1.8724199113
 H        -3.0646978532       -4.6659649423        2.8081899157
 H        -5.0231921220       -5.4434469274        3.8311289754
 H        -6.0695768015       -5.0619290664        2.5635647094
 H        -3.4729574198       -1.7971711849        6.1149084964
 H        -3.4376053989       -3.1154474380        4.9747938172
 H        -3.0873190912       -3.4125462835        6.6817298517
 H        -7.6449029603       -2.1385105857        6.3051685922
 H        -7.7822961425       -1.9018930256        4.4601222973
 H        -6.5844966771       -1.0895060408        5.4182306283
 H        -7.8997262766       -4.5503338893        4.6335993865
 H        -7.6266082333       -4.4557511295        6.3285664442
 H        -6.6732767769       -5.4372591251        5.2154563041
 H        -1.5648912105       -6.9678784649       -0.5546318923
 H        -2.8924067359       -7.6298981361        0.2654258027
 H        -1.6792977674       -6.6358129601        1.2906323360
 H        -0.9621164372       -4.6024684813       -0.2268449575
 H        -1.5331081944       -4.3076945124        1.3647804115
 H        -2.0476642173       -3.2783209046        0.0128574480
 H        -4.5746008623       -5.4883601169       -7.8861108065
 H        -5.7625393069       -4.7162604638       -6.8155894663
 H        -5.4379397907       -6.3827361552       -6.5553217543
 H        -2.9546717399       -7.0246576287       -6.1010592565
 H        -2.0156413802       -6.0858278957       -5.0744525604
 H        -1.9862663282       -5.7061927280       -6.7844799599
 H        -5.0840475976       -0.3800552275       -2.8844085252
 H        -5.9600940026        1.1864478423       -2.8866281697
 H        -4.4436553173        1.0776360769       -2.1853314045
 H        -4.1354826238        3.3563981410       -4.9655413722
 H        -5.5910033083        2.8981215749       -4.4027443560
 H        -5.1001590623        2.3326226475       -6.0626527808
 H         2.9065192913        1.0410293772       -4.9328351804
 H         3.5191609563       -0.4952741494       -3.9923131645
 H         1.9339926240        0.4115047192       -3.6217929795
 H         3.5179420601       -1.5285698292       -6.6451378921
 H         2.8047606484        0.0652492029       -7.1633537480
 H         2.0058456001       -1.5068533479       -7.4411272870
 H         2.9466486221       -8.1128032328       -3.4987461441
 H         1.5828393271       -7.0542762063       -3.2383814939
 H         3.0164396001       -6.8897738633       -2.2389258359
 H         5.6074857669       -6.0208811205       -4.8664852093
 H         5.1261428344       -7.5099814555       -4.1602984223
 H         5.4124295539       -6.1857198226       -3.1162423451
 H        -0.6092265958       -6.7247335162       -8.1295838699
 H         0.0888036373       -8.3042888662       -8.8976164424
 H        -1.0952174146       -7.2456754332       -9.5757433868
 H         2.0965351129       -8.1115477493      -10.2879199282
 H         2.3487380288       -6.6850573565      -11.3473316319
 H         0.7903344561       -7.6447110248      -11.3665562996
 H        -4.1021063692       -0.5043136928      -10.4862572349
 H        -2.6401308679        0.4364988969      -10.4066957295
 H        -2.8576985052       -0.8252237941       -9.1521133961
 H        -3.8941586614       -3.0919914461      -10.3142188048
 H        -2.8889284446       -3.7362263820      -11.6222342888
 H        -4.1450479821       -2.7371006603      -12.1689358089
 H        -1.7393257143        0.7966952074      -18.4795549160
 H        -1.7029880954       -0.4682590631      -17.0585213240
 H        -0.9976241189        1.1243377873      -16.9484337616
 H        -2.2922497802        2.9247727096      -15.5019439180
 H        -3.6449139842        3.3952959462      -16.5216651695
 H        -2.2247530799        3.1695803158      -17.2359534538
 H        -7.8932844221        1.7430874624      -17.4529685687
 H        -9.3339824248        2.1102042401      -18.4186805773
 H        -7.6339223358        2.6641521391      -18.8110796297
 H        -8.4154314910       -0.8569282658      -17.8279725483
 H        -8.9735649746       -1.4337232918      -19.3511324238
 H       -10.0629677007       -0.5394506333      -18.4460330148
 H        -9.9696115805        2.2803005875      -25.3786916693
 H       -10.4385003639        0.7202950600      -25.9408226325
 H        -9.2519127803        1.4773891153      -26.9498802544
 H        -7.5179841822        0.4036159353      -26.8796662590
 H        -7.8086573191       -1.0558995100      -25.8618100407
 H        -6.3907697447       -0.0118212547      -25.5675170820
 H        -7.3065892610        6.2971640459      -24.6155742738
 H        -7.6332872060        7.1610342721      -23.0547407288
 H        -8.2140476690        5.4379808905      -23.4469508343
 H        -4.5134064293        7.5299506056      -22.3064755762
 H        -4.9721928761        7.3418611966      -24.0424765184
 H        -4.0457869661        6.1303220172      -23.3339225494
 Na       -5.8782360031        2.7081829428      -20.3947697163
 Na       -0.1142994407       -2.9612705102       -7.5799387117
