232

 C        -7.0243944024        7.3700038919      -20.8521613741
 C        -6.5182132859        6.0181767126      -21.3407102802
 O        -6.6009437997        5.0376117170      -20.6069203091
 C        -6.0339750816        5.7945917551      -22.7480004517
 C        -5.6350479322        4.3105652315      -23.0793893370
 O        -4.9785847035        3.5899428180      -22.3522983245
 C        -5.8547169269        3.9481014728      -24.5635071950
 C        -6.2164028196        2.4580744181      -24.7875067074
 C        -7.7100045852        2.2394460050      -24.7275612274
 O        -8.3749180413        3.0813570105      -24.1670410446
 C        -8.3271470450        0.9313054289      -25.1254119775
 C        -8.8331804704        0.1725666790      -23.7595437058
 O        -8.3618448174       -0.9325109671      -23.5480802291
 C        -9.9312782461        0.8069998394      -22.8950457129
 C        -9.9550370795        0.4343179056      -21.3590983370
 C        -8.7223776310        1.1159694319      -20.6811388624
 O        -8.1724706405        2.0836509867      -21.1134005937
 C        -8.1580083566        0.5787946750      -19.2045822192
 C        -6.7339550371        0.1249699182      -19.5433427465
 O        -6.1696459130        0.3149386862      -20.6203694118
 C        -5.9200830662       -0.6387019353      -18.5685236984
 C        -4.3223400780       -0.2612677822      -18.5730063516
 C        -4.1756934271        1.2169179131      -18.0217310848
 O        -4.6523918167        2.1919832722      -18.4819462964
 C        -3.1177031593        1.3653293551      -16.8666509307
 C        -3.7714685322        0.5242600575      -15.6237617679
 O        -4.6263311848       -0.3122159982      -15.8870628702
 C        -3.1911626560        0.7018223916      -14.1696803593
 C        -3.5549182030       -0.5695482641      -13.3681327489
 C        -2.2802603910       -0.8616685066      -12.4988123373
 O        -1.1530247961       -0.4922925754      -12.8340574867
 C        -2.4474151256       -1.6595356377      -11.1572504563
 C        -1.0585988997       -2.2535683313      -10.6474674283
 O        -0.6674263762       -2.0141716471       -9.4901597262
 C        -0.2136424221       -3.0689442577      -11.6459240046
 C         0.8185521018       -3.9968603482      -10.9793512076
 C         0.1509822804       -5.2024496555      -10.2828751346
 O        -1.0240508202       -5.0843426435       -9.9244979787
 C         0.9167418239       -6.4327452916       -9.7337713146
 C         1.9000154103       -5.8708472156       -8.6156251176
 O         1.6840569136       -4.7885291084       -8.0791982143
 C         3.1604408894       -6.5998275156       -8.2695583548
 C         3.9194143149       -6.2538494366       -6.9733326268
 C         3.0240219827       -6.5982887665       -5.7337804087
 O         1.9790340727       -7.1923006997       -5.8223756338
 C         3.5121427169       -6.1871916832       -4.2745358899
 C         3.1999239849       -4.5829554336       -4.1234899635
 O         3.9085815418       -3.7257852583       -4.6263400846
 C         1.8693900374       -4.2235388376       -3.3366691280
 C         1.6844186621       -2.7174207854       -3.3704560575
 C         1.4793314801       -2.3576835231       -4.8093191467
 O         1.1128015432       -3.2200524895       -5.5824060163
 C         1.7756566352       -0.9088453244       -5.3491674804
 C         0.3139471924       -0.3220167915       -5.6399263991
 O        -0.2911962924       -0.8197789347       -6.5524684244
 C        -0.2268801387        0.8140159990       -4.8161556670
 C        -1.6228759577        1.4887922758       -5.2717184788
 C        -2.6724793115        1.1276422750       -4.0938700846
 O        -2.3373790329        0.9192004621       -2.9638329948
 C        -4.2187200753        1.1936192650       -4.4232726237
 C        -4.4402782605        0.0594163618       -5.4022372119
 O        -4.5361515860        0.3630611489       -6.6241028592
 C        -4.2712260448       -1.3914183516       -5.0344231010
 C        -4.3687141955       -2.3115401504       -6.2938605980
 C        -3.3785125285       -3.5723412856       -6.1150473807
 O        -2.1901497901       -3.3376150585       -6.3345109621
 C        -3.8468965041       -5.0390874909       -5.7880815406
 C        -4.5732994709       -5.1584389873       -4.4224566882
 O        -5.1133335307       -4.1613212189       -4.0138861431
 C        -4.4852939732       -6.3835394584       -3.5406238184
 C        -4.5443600587       -6.0295267802       -2.0163884067
 C        -3.3844834109       -5.1959549137       -1.5146482236
 O        -2.6919067451       -4.4766737033       -2.2327122700
 C        -2.8810598082       -5.4962281270       -0.0334812225
 C        -4.0737407111       -5.4318976322        1.0069987235
 O        -5.0074621942       -6.2537922706        0.9478252842
 C        -4.0301979016       -4.4378080511        2.0933607742
 C        -5.1480150535       -4.7088271424        3.1900281070
 C        -5.7041333760       -3.3791410876        3.7445674512
 O        -5.6856565783       -2.2970017191        3.0994221643
 C        -6.2204185703       -3.4498400486        5.1945944171
 C        -5.1008211316       -3.3239691917        6.3437155894
 O        -5.4071321992       -3.3047193142        7.5072391483
 C        -3.5408752007       -2.9171994378        5.9427446583
 C        -7.0974851308       -2.1508354131        5.3089592956
 C        -7.1526180135       -4.7044392210        5.4330858814
 C        -2.1278406071       -6.7399425519        0.1881402053
 C        -1.9107145682       -4.2746517289        0.3423122272
 C        -4.9986406648       -5.3746517748       -6.7552737597
 C        -2.7330731898       -6.1341304030       -6.0304454056
 C        -4.8886236897        0.9206404684       -3.0439293465
 C        -4.8101552303        2.4947765258       -5.0065303840
 C         2.6270226028       -0.1089418736       -4.3577565184
 C         2.6378181195       -0.9334376237       -6.6855937919
 C         2.7400679711       -6.9840003458       -3.2310535795
 C         4.9981297740       -6.4550922035       -4.0601208704
 C        -0.1418295730       -7.4091352307       -9.0796844953
 C         1.6688365180       -7.2442174174      -10.8293401528
 C        -3.0637650343       -0.5564416307      -10.2241031775
 C        -3.4316028605       -2.8611291869      -11.1333225863
 C        -1.8491574244        0.7557282788      -17.3853293846
 C        -2.9691652108        2.8368413700      -16.4934711226
 C        -8.2610416683        1.8190132891      -18.2373180355
 C        -9.0275389423       -0.5239896067      -18.6497591230
 C        -9.5736333567        1.3840064187      -25.9062525052
 C        -7.4266526131       -0.0568179252      -25.8832171804
 C        -7.3079398560        6.1525584345      -23.6422936701
 C        -4.8941062132        6.7334474234      -23.0651929895
 H        -7.6772215554        7.2934133737      -19.9693943366
 H        -7.5226063622        8.0291184224      -21.5063161988
 H        -6.0582569776        7.9662562522      -20.6462453522
 H        -4.9625982164        4.4369379285      -25.1658673197
 H        -6.7424588117        4.5497875742      -24.9041982750
 H        -5.5659919658        1.8538822176      -24.1198753278
 H        -5.8009532599        2.2758170602      -25.8036132010
 H       -10.9006857030        0.5784876947      -23.3920655229
 H        -9.7577958658        1.8766721871      -22.9550583682
 H        -9.8956681634       -0.6430227129      -21.1932110580
 H       -10.9643222331        0.7137623154      -20.9478643901
 H        -6.0746481341       -1.6963107127      -18.9021483838
 H        -6.3862087158       -0.6729597643      -17.5386677688
 H        -4.1061808765       -0.3456589323      -19.6376308691
 H        -3.7108131857       -0.9496942880      -18.0009646963
 H        -3.6464880259        1.5553596126      -13.6849546471
 H        -2.1134907888        0.9752078120      -14.1156966455
 H        -3.6136146776       -1.4285868289      -14.0429834292
 H        -4.5006575563       -0.5551511233      -12.8103440351
 H         0.2362288706       -2.2463955340      -12.2046144231
 H        -0.9286868814       -3.5667491380      -12.2871613523
 H         1.2558277063       -3.4857265455      -10.0714508889
 H         1.7155295280       -4.2278841334      -11.6505454640
 H         3.7972212012       -6.5003723028       -9.0978183723
 H         2.9658939159       -7.7360172441       -8.1757812854
 H         4.2162244667       -5.2223001799       -6.9576426644
 H         4.8570177507       -6.8802117049       -6.9982416966
 H         1.8323088140       -4.6017080877       -2.3172673020
 H         1.0685799692       -4.7189012578       -3.8904103627
 H         2.6086881949       -2.2898730111       -2.8757422432
 H         0.8347682527       -2.3561968234       -2.7590339999
 H         0.5098770403        1.6762513670       -4.8310159167
 H        -0.4900082304        0.5571725837       -3.7896592148
 H        -1.8536091768        0.9987975481       -6.2181310958
 H        -1.6270500081        2.6584791914       -5.4652524152
 H        -4.9827842085       -1.7877058230       -4.2361413416
 H        -3.3725132847       -1.4248809879       -4.4560480142
 H        -4.0692323119       -1.7298018395       -7.1704013286
 H        -5.3558583572       -2.7107651829       -6.4623901299
 H        -3.5478603762       -6.9132554376       -3.8004828286
 H        -5.3682451751       -7.0993841885       -3.7272596469
 H        -4.7649311251       -6.9331479248       -1.4360052097
 H        -5.4001561193       -5.4043759159       -1.9117610993
 H        -4.1841067220       -3.4448256178        1.5676567342
 H        -3.1204439657       -4.3585538698        2.6031835595
 H        -4.8778176449       -5.3786149963        3.9702230124
 H        -6.0397556503       -5.1936369373        2.7934114403
 H        -3.4500728960       -1.7993567343        5.8985952082
 H        -3.2109211578       -3.3198921393        4.9506738590
 H        -2.7903073509       -3.2128160081        6.6885824599
 H        -7.6776650915       -2.0981964987        6.2097519267
 H        -7.6348918594       -2.1056623608        4.3628387607
 H        -6.4700879065       -1.3016414608        5.2444513194
 H        -7.5087996501       -5.1142319923        4.4705504258
 H        -8.0044648972       -4.4955715979        6.0786736403
 H        -6.7100434726       -5.6317600831        5.8008684822
 H        -1.5277769518       -6.9198677614       -0.7456305211
 H        -2.9164300013       -7.4745176518        0.0463386544
 H        -1.6069455026       -6.7711732811        1.1588850840
 H        -0.8670289040       -4.3833160158       -0.0862294004
 H        -1.8178760965       -4.3863893571        1.4389040904
 H        -2.2749910881       -3.3255464853        0.0704693974
 H        -4.5861754507       -5.3635519918       -7.7853334656
 H        -5.7087655067       -4.5089655221       -6.6978651964
 H        -5.4945212365       -6.2754518133       -6.5274145900
 H        -3.1337620982       -7.1963952211       -5.8068082756
 H        -1.8266461896       -6.0678463266       -5.4143338149
 H        -2.3492248243       -6.1304778672       -7.0435926308
 H        -4.9446730153       -0.1088228244       -2.8202267516
 H        -5.8801666999        1.3347091688       -3.2087043090
 H        -4.5478571154        1.5393072329       -2.2154554747
 H        -4.2650007773        3.3716579339       -4.5851782981
 H        -5.7420018449        2.6375316372       -4.5864397179
 H        -4.7950642202        2.5440467760       -6.0505736029
 H         3.1366527356        0.5785683239       -5.0108392648
 H         3.3576360949       -0.7712689184       -3.8995050762
 H         2.0285628511        0.5704545405       -3.6981038377
 H         3.5580853477       -1.4098127117       -6.5284554361
 H         2.7786085601        0.0807860921       -7.1173370467
 H         2.0753306874       -1.5969963763       -7.4119685481
 H         2.6018907600       -8.0205062438       -3.5240793573
 H         1.7470209289       -6.5570752271       -3.1602518888
 H         3.1810959092       -7.0178369975       -2.3046826205
 H         5.6834291555       -5.8129849429       -4.6405905091
 H         5.2888974271       -7.5261611649       -4.1986245897
 H         5.2782496681       -6.2488683356       -3.0341128144
 H        -0.7568981228       -7.0847452412       -8.2918406003
 H         0.3102488075       -8.3456679958       -8.9546155540
 H        -0.9070557793       -7.5846918334       -9.8528903626
 H         2.2078087530       -8.0894645520      -10.3680063454
 H         2.3428272169       -6.4657291623      -11.2380424767
 H         1.0122836201       -7.5693472757      -11.5284935975
 H        -4.1194740853       -0.2361132853      -10.5165900065
 H        -2.4384258769        0.3565115833      -10.2471352526
 H        -3.0104466366       -0.9233934245       -9.2434750703
 H        -3.9507292677       -2.8910291140      -10.1278273297
 H        -2.8733119339       -3.8459833511      -11.2596759214
 H        -4.0673751083       -2.8442231863      -12.0253368256
 H        -1.8682633104        0.9700521052      -18.4708665105
 H        -1.7869642029       -0.3016462994      -17.1907154189
 H        -0.9074456358        1.2104164065      -16.9863514836
 H        -2.1644170796        3.0411732464      -15.8063573027
 H        -3.9182475812        3.1047266793      -16.1362523957
 H        -2.8866041687        3.4159723220      -17.3792625477
 H        -8.2311776730        1.7033565088      -17.1955790627
 H        -9.3023478812        2.3090382301      -18.5241489460
 H        -7.4050848394        2.4136147142      -18.4240130698
 H        -8.5035176822       -0.8838063201      -17.7808103840
 H        -9.2069417357       -1.3905542602      -19.3031507212
 H        -9.9262596342       -0.1269206963      -18.3892656773
 H       -10.1447748931        2.2048179520      -25.3382300258
 H       -10.3334322470        0.5802206370      -25.8809944185
 H        -9.3247639524        1.5339921333      -26.9887259775
 H        -7.2528892667        0.3541299552      -26.8474379127
 H        -7.9317176946       -1.0005847315      -26.0073898068
 H        -6.4946891579       -0.2281932074      -25.3816620362
 H        -7.0905350109        6.2645112052      -24.7070668945
 H        -7.5398488519        7.1473735761      -23.2853539893
 H        -8.1882212090        5.4461457162      -23.6085605836
 H        -4.9640474781        7.6994568915      -22.5664174676
 H        -4.6880513805        6.9315443921      -24.1890002998
 H        -3.9649511584        6.2446322480      -22.8112094497
 Na       -5.9364417184        2.5655038098      -20.5669819824
 Na       -0.1570766354       -2.8249794939       -7.5514106902
