232

 C        -7.1538517926        7.1323046106      -21.1128938667
 C        -6.6711639458        5.7855038732      -21.6213996297
 O        -7.0015192201        4.7415689321      -21.0886733191
 C        -5.9052264553        5.8125778008      -23.0261435799
 C        -5.4111378649        4.3631095715      -23.3869099822
 O        -4.8155630148        3.7296091042      -22.5109644412
 C        -5.7943100247        3.7505872237      -24.7526863594
 C        -6.2246324307        2.3129399997      -24.6373167529
 C        -7.7279549166        2.2027346159      -24.4782983760
 O        -8.2892901970        3.2838962051      -24.2252178341
 C        -8.6318469614        0.9443898470      -24.8202393346
 C        -8.9163199086        0.1509265898      -23.5894850793
 O        -8.3366154363       -0.8337998085      -23.2298991740
 C       -10.0218433450        0.7314405648      -22.6759884408
 C        -9.9644572304        0.3087559959      -21.2159910148
 C        -8.8785814876        1.0966707844      -20.5536751471
 O        -8.3583813548        2.0982891285      -21.0564998256
 C        -8.1584105821        0.5905381260      -19.2506434446
 C        -6.7256350788        0.0822551819      -19.5132802858
 O        -6.2988274917        0.2379662505      -20.6810277445
 C        -6.0033815680       -0.8913591661      -18.6164560019
 C        -4.5181917443       -0.4900330516      -18.3885856800
 C        -4.2101924530        1.0421872795      -18.0741503164
 O        -4.5677066298        1.9291230785      -18.8486181999
 C        -3.4647554305        1.4094383146      -16.7821723100
 C        -3.6248597671        0.4647207625      -15.4848931951
 O        -4.3785917003       -0.4808076202      -15.4983005158
 C        -2.8527985243        1.0059027496      -14.2631889110
 C        -3.3288829043        0.3079126287      -12.9457967964
 C        -2.2766410780       -0.7226640685      -12.4019991697
 O        -1.2876652583       -1.0876338117      -12.9855317624
 C        -2.6109068159       -1.4016154529      -11.0343490063
 C        -1.3471559028       -2.2082311211      -10.4532737515
 O        -1.0556600022       -1.9846496927       -9.3162581894
 C        -0.7592629541       -3.3183464758      -11.4090488734
 C         0.3941112925       -4.0397679190      -10.7305450962
 C        -0.1163383109       -5.2970739421      -10.0613572336
 O        -1.2750342278       -5.5334994389       -9.9042355722
 C         1.0520782747       -6.3720356501       -9.5870398652
 C         1.9192073996       -5.6998201061       -8.5085738752
 O         1.5806436258       -4.7237551701       -7.8667106724
 C         3.3273351659       -6.3375482078       -8.3681065502
 C         3.9610588228       -6.0318468510       -7.0026554485
 C         3.1197991134       -6.4211294495       -5.8174272002
 O         1.9653683866       -6.8341777419       -5.9369635123
 C         3.7807748091       -6.1126755123       -4.4364690198
 C         3.4878555286       -4.6087013982       -4.2306674935
 O         3.8495848183       -3.8332878386       -5.0861120675
 C         2.5024338228       -4.0990230080       -3.1641684434
 C         2.3824104958       -2.5985778392       -3.2508242696
 C         1.6402232865       -2.1531662515       -4.5354199046
 O         0.6761266763       -2.8302296958       -4.8732099181
 C         1.8974696856       -0.8274289825       -5.2840660719
 C         0.4455859462       -0.2246791912       -5.7160960880
 O        -0.1702019698       -0.7387724845       -6.6642152749
 C        -0.1333943353        0.9555003239       -4.9539478662
 C        -1.6375347327        1.4382083915       -5.1774384177
 C        -2.5422746877        1.1549299259       -4.0723137239
 O        -2.1558580050        0.7754728977       -2.9559782651
 C        -4.0464288304        1.2659892331       -4.4619777018
 C        -4.3236379023        0.1606085850       -5.5160467377
 O        -4.8313550746        0.4994055982       -6.5284067643
 C        -3.7908544709       -1.2164228464       -5.2810543417
 C        -4.3450104558       -2.2227602630       -6.2464870841
 C        -3.4382166520       -3.5275476381       -6.3618183702
 O        -2.2703798371       -3.4169563545       -6.6124111176
 C        -4.1947439992       -4.9207519614       -6.1765403527
 C        -4.7457819049       -5.0337720346       -4.5773228573
 O        -5.3573339932       -4.1411383046       -4.0584152791
 C        -4.5375083861       -6.3350019700       -3.6789914821
 C        -4.4272373034       -5.9944250587       -2.2112040198
 C        -3.2432848482       -5.0274718153       -1.7023340389
 O        -2.5750725579       -4.2800735161       -2.3598072024
 C        -2.7522889247       -5.3539350472       -0.1714780991
 C        -4.0072670733       -5.5124098878        0.8574562493
 O        -4.6769417212       -6.4827103462        0.7882730860
 C        -4.2026985679       -4.3569017576        1.8931530874
 C        -5.3126138614       -4.8460590193        2.9804805738
 C        -5.6551964809       -3.6964043480        3.9517114917
 O        -5.6484257660       -2.5635801391        3.5844290269
 C        -6.1175671355       -3.8860229277        5.4480480628
 C        -4.9088373626       -3.6003351364        6.4471842586
 O        -5.2115410459       -3.4047742763        7.6261924079
 C        -3.5125925571       -3.3900260029        5.9419207129
 C        -7.1833668347       -2.8455763549        5.7096649982
 C        -6.6171758481       -5.2733707543        5.6897902390
 C        -2.0963106248       -6.8405367619       -0.1857867431
 C        -1.7865447453       -4.2056082855        0.2075405825
 C        -5.4879030320       -4.8491852196       -7.0199023767
 C        -3.1859152234       -6.0108009163       -6.4767481221
 C        -4.9852106066        1.0685175783       -3.1464142852
 C        -4.3306391927        2.7036401820       -4.9992745018
 C         2.6932882415        0.1803122951       -4.3004538377
 C         2.7289915246       -1.1369006994       -6.6450303792
 C         3.1584362691       -7.1268171257       -3.3919859716
 C         5.3316187434       -6.3869957632       -4.6134576587
 C         0.2050906319       -7.5936608006       -8.9786039444
 C         1.9028993030       -6.9031215141      -10.6980107737
 C        -3.0577645382       -0.3505891408       -9.9657639847
 C        -3.7735829912       -2.5139359924      -11.2116561749
 C        -1.9286718329        1.4614109436      -17.2947438797
 C        -3.9237559932        2.7975096729      -16.3375339717
 C        -8.2976039359        1.7637755755      -18.1943132421
 C        -8.9541055888       -0.5844789983      -18.3917491569
 C        -9.8788197536        1.5146765850      -25.4753265102
 C        -7.9310529057       -0.1233721676      -25.7811885956
 C        -7.0454785812        6.2824603878      -24.0771404015
 C        -4.6589894208        6.7438265528      -23.3516883478
 H        -8.2622941085        7.0902079425      -21.2859878254
 H        -6.7602667507        8.0171087326      -21.7255615255
 H        -7.0386026364        7.3023629879      -20.0599993300
 H        -4.9171177938        3.8838129908      -25.4491631462
 H        -6.5867950018        4.3702140931      -25.2995266145
 H        -5.7624944796        1.9539598528      -23.6481956442
 H        -5.5911160547        1.9231257766      -25.3877236520
 H       -10.9562719443        0.4202148738      -23.1078081268
 H        -9.8455460217        1.8206168243      -22.6684646808
 H        -9.9013038396       -0.7732586635      -21.1024350605
 H       -10.9309106763        0.5789021152      -20.7233756047
 H        -5.9604751144       -1.9661921434      -18.9538073246
 H        -6.4655139935       -0.9273802574      -17.6290585501
 H        -3.9463266680       -0.7648020985      -19.2969096678
 H        -4.2437660111       -1.0993670640      -17.5767235340
 H        -2.7096996759        2.1174525240      -14.2436270482
 H        -1.8401998366        0.6772920834      -14.4216321725
 H        -4.2054344083       -0.2916345322      -13.1171691719
 H        -3.5301472839        1.0727115516      -12.1674189889
 H        -0.5064758107       -2.8594643813      -12.3504645656
 H        -1.6376083842       -3.9571028380      -11.6260740702
 H         0.7383949845       -3.4025461235       -9.9053932025
 H         1.2738638052       -4.2238154422      -11.4271872858
 H         3.9664176555       -6.1077525396       -9.1970949933
 H         3.2677893640       -7.3305318836       -8.4668528894
 H         4.2466620950       -4.9461227831       -7.0112771047
 H         4.9017783636       -6.5698275706       -6.9248068247
 H         2.7588368438       -4.4600312649       -2.1701818564
 H         1.5994874549       -4.6702116093       -3.2633071055
 H         3.4254587964       -2.2662749562       -3.2305833878
 H         1.8336888793       -2.2324539339       -2.3641222306
 H         0.4511485637        1.8701983987       -5.3225488047
 H         0.0546273477        1.0237740088       -3.9028307573
 H        -2.0772443363        1.1896133711       -6.1879890824
 H        -1.4789721672        2.5081612029       -5.1405845989
 H        -4.0207524994       -1.5053109372       -4.2796797469
 H        -2.6537379723       -1.2272032841       -5.1796648517
 H        -4.5655112326       -1.7698305897       -7.1987326127
 H        -5.3163101489       -2.6158692176       -5.9254710232
 H        -3.6274282234       -6.8556890062       -3.9855966107
 H        -5.3563169066       -7.1340301616       -3.8637620908
 H        -4.1740997485       -6.8095818508       -1.6096993113
 H        -5.3751943758       -5.5680840226       -1.9089315640
 H        -4.5182806031       -3.4206165058        1.4114416991
 H        -3.2780464181       -4.1652988125        2.4231395103
 H        -5.0040826836       -5.7591424949        3.5295024437
 H        -6.1224289291       -5.1740014493        2.3802575456
 H        -3.5156909157       -3.2782173795        4.8643986099
 H        -2.9273504466       -4.3378358556        6.0527028979
 H        -2.9606780504       -2.5361446614        6.4022259614
 H        -7.5529498549       -3.0099924672        6.7084688931
 H        -8.0431338869       -3.0351105793        5.0831947503
 H        -6.7823654844       -1.8423575410        5.4926324079
 H        -5.8165221162       -6.0153652568        5.8717043425
 H        -7.2519761278       -5.6425389406        4.8548945538
 H        -7.3025787250       -5.2468957095        6.5289484748
 H        -1.4352900192       -6.7787476441       -1.0893997257
 H        -2.9618074661       -7.5930360293       -0.2852086590
 H        -1.5213397339       -7.0521147218        0.7012144257
 H        -0.8105845043       -4.3043553684       -0.1941660382
 H        -1.7036712286       -4.2417487765        1.2831873342
 H        -2.2297384968       -3.2048222767       -0.0713166469
 H        -5.1768286521       -4.8437925913       -8.0399560360
 H        -6.1539909170       -4.0765465413       -6.7779783730
 H        -5.9090896052       -5.9108095134       -6.9735696576
 H        -3.7124874064       -6.9485530403       -6.4593849378
 H        -2.3530077615       -6.0646063220       -5.7018586513
 H        -2.6452963812       -5.9415699501       -7.4400101485
 H        -4.8379772553        1.8845118151       -2.4289746522
 H        -4.5903683436        0.1286585407       -2.7949777629
 H        -6.0174694826        0.9237638931       -3.4616727405
 H        -5.3036759470        2.7930153071       -5.2744240854
 H        -3.5835862816        2.9797240142       -5.7880080342
 H        -4.2953029952        3.3161107852       -4.1490980148
 H         3.0211365918        1.0629683092       -4.8929266966
 H         3.5245365526       -0.3212622591       -3.7615452956
 H         1.9179608885        0.4553846028       -3.5918085589
 H         3.5738512427       -1.8090620502       -6.2531522658
 H         3.1775792331       -0.2363764339       -7.0142429469
 H         2.2091871871       -1.7117556368       -7.3947917910
 H         3.8746270700       -7.8246645526       -3.0630771645
 H         2.3757079219       -7.5533111373       -3.9016432789
 H         2.7670847124       -6.6630785491       -2.4594072952
 H         5.9205599146       -5.5708363816       -5.0099821571
 H         5.5462355392       -7.3305432232       -5.0979715249
 H         5.8305572663       -6.5971440367       -3.6401111020
 H        -0.5703134012       -7.2564551786       -8.3053848839
 H         0.6443473843       -8.4108085436       -8.4495782742
 H        -0.2917319522       -7.9804274644       -9.8257440622
 H         2.3882987345       -7.7711244515      -10.3511967607
 H         2.5981044885       -6.1852665250      -11.0775201299
 H         1.1931091297       -7.2072518074      -11.5617476582
 H        -4.0605526724       -0.0478950215      -10.1513094966
 H        -2.3739014778        0.5219868707       -9.8593366832
 H        -3.1052523932       -0.8480774886       -8.9460050970
 H        -3.5068481807       -3.5472041909      -10.8664528292
 H        -3.8856272802       -2.6019410965      -12.3238097903
 H        -4.6869490252       -2.0719559853      -10.7230871971
 H        -1.8499787326        2.1189791043      -18.1643017347
 H        -1.6684034629        0.4505455240      -17.6165772447
 H        -1.3239323940        1.8136498735      -16.4349878336
 H        -3.4150308783        2.9627919534      -15.4421180210
 H        -4.9524404151        2.6650528839      -16.0828107034
 H        -3.7408453647        3.5796923349      -17.0096539701
 H        -7.8556008270        1.3777510633      -17.2000097311
 H        -9.2719673056        1.9519318664      -18.0524271083
 H        -7.7795197574        2.7342616258      -18.4501577091
 H        -8.5632398667       -0.8040175088      -17.4565939248
 H        -9.0147809998       -1.4963495568      -18.8710966922
 H        -9.9656783634       -0.1257241479      -18.2476349945
 H       -10.2567235265        2.4356037811      -25.0485153916
 H       -10.6742589856        0.6885420642      -25.4492395649
 H        -9.4768464459        1.8868446992      -26.4618054367
 H        -7.8088954020        0.3420702273      -26.7349974499
 H        -8.4964072515       -1.0320562006      -25.8813378986
 H        -6.9464591995       -0.4142515141      -25.4075639157
 H        -6.6948350723        6.3685032517      -25.1495922626
 H        -7.5111854479        7.2658796715      -23.8681565808
 H        -7.8606661709        5.6227812310      -23.9674463439
 H        -4.1371136721        6.3550493527      -24.2414527412
 H        -4.0446807756        6.9479912137      -22.4996870995
 H        -4.9896993947        7.7729866521      -23.7673614224
 Na       -5.9293216707        2.5285347341      -20.7387277126
 Na       -0.2141342628       -3.1629808484       -7.2857882409
