232

 C        -7.2828192172        7.1048112705      -21.3518007124
 C        -6.6011661179        5.7889141784      -21.7648376652
 O        -6.6828970179        4.8740077069      -20.9832703384
 C        -5.9388121682        5.7403272342      -23.2181659501
 C        -5.4428785644        4.2111875656      -23.4718236216
 O        -4.9333160679        3.6466084967      -22.5360986253
 C        -5.3932046883        3.5074328033      -24.9273580475
 C        -6.3098055072        2.1267998848      -24.8399214559
 C        -7.7530187227        2.2824268952      -24.5773736153
 O        -8.2365045432        3.3220084541      -24.2625575701
 C        -8.7116263892        0.9615031250      -24.7729202980
 C        -9.0652724629        0.2694792629      -23.4127400008
 O        -8.3490374524       -0.6279768457      -23.0546149382
 C       -10.2887070510        0.6129340456      -22.5682969493
 C       -10.1523232898        0.2906367111      -21.0052141679
 C        -8.8480893578        1.0013258258      -20.4072301419
 O        -8.2466634567        1.8166680359      -21.0828383960
 C        -8.1938003424        0.4879204319      -19.0697729836
 C        -6.7327703995       -0.0072357088      -19.5243567599
 O        -6.2080952548        0.3647889766      -20.5362118700
 C        -5.9655360258       -0.9037660217      -18.5685764254
 C        -4.4669942984       -0.5493705951      -18.4953893424
 C        -4.3400370097        0.9178094320      -18.0961965231
 O        -4.8329463455        1.7953555141      -18.7345258850
 C        -3.5755531662        1.5116889477      -16.7849552121
 C        -3.6544318250        0.6701429355      -15.4979815540
 O        -4.3974323502       -0.2940868494      -15.3898416905
 C        -2.6271861912        0.9393601076      -14.3110255030
 C        -3.2089801764        0.6226946806      -12.9304268345
 C        -2.4371557805       -0.7244062780      -12.4110989190
 O        -1.3856403067       -0.9836444901      -12.9637957560
 C        -2.8430763368       -1.4139554519      -11.0795987899
 C        -1.5514015166       -2.2412125368      -10.4158738792
 O        -1.1136794027       -2.0013720897       -9.2944525512
 C        -0.9499246315       -3.3412559417      -11.4261989818
 C         0.2806326450       -4.0028901470      -10.7605359333
 C        -0.1363146408       -5.3307038037      -10.0098445418
 O        -1.3406457790       -5.5927513862       -9.9108218045
 C         0.9677087799       -6.3873774152       -9.5484616977
 C         1.9659053051       -5.7119102344       -8.5883039483
 O         1.5209721720       -4.8131308225       -7.8782971860
 C         3.3477473724       -6.2311348313       -8.4476832042
 C         4.0800949289       -5.9484957342       -7.1445771114
 C         3.3528262858       -6.5075024276       -5.9371765388
 O         2.3049200826       -7.0385420700       -6.0320420240
 C         3.8477957667       -6.0556031124       -4.3848916110
 C         3.5541374812       -4.5446389833       -4.3354431482
 O         4.1711429497       -3.7577897619       -5.0488942830
 C         2.6251955274       -4.0244730572       -3.1683313576
 C         2.4739044487       -2.4829977505       -3.1853918118
 C         1.5688050466       -2.1422125054       -4.3342917353
 O         0.8737597149       -2.9710756695       -4.8562368847
 C         1.9342734940       -0.8292457834       -5.1550639815
 C         0.5507557118       -0.2341312227       -5.5663419888
 O        -0.1518662733       -0.8117587794       -6.3469036226
 C         0.0810689698        0.9709088890       -4.8426793243
 C        -1.3272136645        1.4656018861       -5.2675516609
 C        -2.3955711428        1.1812288956       -4.2014128982
 O        -1.9385948654        0.7458569944       -3.1871433160
 C        -3.9950825919        1.3414878255       -4.4639816012
 C        -4.3499483243        0.2916597062       -5.5585102682
 O        -5.0486907995        0.4931743145       -6.5939456583
 C        -3.6320759587       -1.0599569694       -5.4678703955
 C        -4.4038473326       -2.1535220711       -6.1619976479
 C        -3.6579174902       -3.4933300575       -6.3391134563
 O        -2.4526415613       -3.5743569218       -6.5829227702
 C        -4.3336586095       -4.9464218979       -6.1928173074
 C        -4.7629536054       -4.9109598611       -4.6006761948
 O        -5.4793994143       -3.9849823245       -4.2591790070
 C        -4.2650376126       -6.0536099354       -3.7086909245
 C        -4.5341060190       -5.9320701585       -2.1824561112
 C        -3.3189415792       -5.1030909578       -1.6041904722
 O        -2.7605159407       -4.3359504791       -2.3564817069
 C        -2.7846012361       -5.3988551898       -0.1856893663
 C        -4.0221829684       -5.4798926253        0.8171158543
 O        -4.7559862351       -6.4590458227        0.6629847506
 C        -4.3221036543       -4.4110658173        1.8657616524
 C        -5.2922392325       -4.8635157075        2.8822475606
 C        -5.6850161802       -3.7697687719        3.8596339765
 O        -5.5095070918       -2.6012037914        3.4695151876
 C        -5.9705999684       -4.0462619517        5.3415125539
 C        -4.8582145581       -3.6916192559        6.4111174964
 O        -5.1570294152       -3.5603334760        7.5333633731
 C        -3.3364845886       -3.6106740077        6.0313025096
 C        -7.2576482611       -3.2226251594        5.7780185529
 C        -6.2196013479       -5.5822017780        5.5628949001
 C        -1.9348902481       -6.6968792399       -0.1696333080
 C        -1.7884477402       -4.1872471115        0.2603840878
 C        -5.6651460458       -5.0268019501       -6.9958435136
 C        -3.3918984404       -6.0970031007       -6.6211683401
 C        -4.6804388635        0.8925164881       -3.1780285794
 C        -4.5124534965        2.7733444316       -4.9687732484
 C         2.8330531773        0.2015886360       -4.5085740918
 C         2.8060917025       -1.2946454592       -6.3579305513
 C         3.1287876466       -6.9454232181       -3.3558946089
 C         5.3890727571       -6.0718817262       -4.1689513740
 C         0.2225468159       -7.4298165276       -8.7504783972
 C         1.6217417273       -7.0534178352      -10.8304927534
 C        -3.1862697042       -0.2585838305      -10.0281522888
 C        -4.1548489644       -2.2529804414      -11.2393502262
 C        -2.0947341107        1.7902191605      -17.1975266924
 C        -4.2660192333        2.9519650410      -16.5151296447
 C        -8.0308591928        1.7388074210      -18.1746029708
 C        -9.0061894216       -0.6659315042      -18.5316482278
 C       -10.0613999652        1.3676676294      -25.3591718888
 C        -7.9714647205        0.0742219805      -25.7994720869
 C        -7.0123608775        6.2369687105      -24.2624384211
 C        -4.7180188568        6.6245423505      -23.0424931884
 H        -8.3132637908        7.1394255670      -21.6788967982
 H        -6.7743911999        7.9247959779      -21.7287890137
 H        -7.3902461206        7.1052570462      -20.2131198738
 H        -4.3773027433        3.3827226104      -25.1621608284
 H        -5.7324247081        4.1941125840      -25.6070207558
 H        -5.8185091031        1.5797944746      -24.0861580349
 H        -6.1442433007        1.6010209985      -25.8138720280
 H       -11.0888680646        0.0087626685      -23.0282252328
 H       -10.3820205321        1.6768002678      -22.5947473559
 H       -10.1190101019       -0.7982213360      -20.8706881966
 H       -11.0858528377        0.5790965245      -20.5287857094
 H        -5.9393123945       -1.8636111362      -19.0032916691
 H        -6.3725842429       -0.9850385313      -17.5872010907
 H        -4.0900019737       -0.7196724691      -19.5005799848
 H        -3.9689957721       -1.2096491063      -17.7352958029
 H        -2.3165052849        1.9600863384      -14.3682883923
 H        -1.6477531002        0.3965059457      -14.4900331504
 H        -4.3120208118        0.4634144648      -13.1220159250
 H        -3.0124290337        1.5001837982      -12.3226431984
 H        -0.8116363232       -2.8690947454      -12.4349067510
 H        -1.7285186445       -4.1050239438      -11.5702405631
 H         0.6889619670       -3.3346329343      -10.0409331352
 H         1.0199816861       -4.2405235116      -11.4902024411
 H         4.0000688789       -5.9801517092       -9.3543562018
 H         3.2885025874       -7.3877369171       -8.5671323535
 H         4.1096689670       -4.8936932928       -7.0809251755
 H         5.1355805766       -6.2108259401       -7.2045900972
 H         2.9473728382       -4.4338923499       -2.2089324448
 H         1.6665793256       -4.5824904841       -3.1566847484
 H         3.4783860773       -2.0610979689       -3.3567728637
 H         2.0668296660       -2.1891062470       -2.2481916817
 H         0.7931962867        1.7639656357       -4.7862306663
 H         0.0688285126        0.7533904225       -3.7498862120
 H        -1.4858410588        0.8906816797       -6.1120198604
 H        -1.2139174221        2.4947551853       -5.6618526866
 H        -3.5011113145       -1.3534367665       -4.3597118905
 H        -2.6260381608       -0.9364985666       -5.8215942536
 H        -4.8510039656       -1.9297633802       -7.1651706880
 H        -5.2901614290       -2.4378149408       -5.6025545739
 H        -3.1772526507       -6.2336898710       -3.8930708178
 H        -4.6782972273       -6.9297217613       -4.1376808603
 H        -4.4589613198       -6.8807677862       -1.5528130486
 H        -5.4630833023       -5.3427307128       -2.0308981806
 H        -4.5963344732       -3.5329837487        1.2768961194
 H        -3.4527610555       -4.1375461816        2.4588882853
 H        -4.7611725259       -5.7286655148        3.2870472919
 H        -6.2152581453       -5.2873851059        2.3588730238
 H        -3.1376111948       -3.6016942347        4.9228168188
 H        -2.6581093809       -4.3942209969        6.4037935732
 H        -2.9689393049       -2.6748200213        6.4145151582
 H        -7.6426544175       -3.6132489709        6.7014933662
 H        -8.0650441273       -3.4922328002        5.0939954280
 H        -7.0422462596       -2.1870165384        5.8110448170
 H        -5.3852033091       -6.1220082469        6.0488188968
 H        -6.3906237985       -6.1371940839        4.6186575244
 H        -7.1427619914       -5.6598854614        6.1967689027
 H        -1.1366458775       -6.6916196811       -0.9451738238
 H        -2.6245672166       -7.5098439425       -0.0455613950
 H        -1.4443420827       -6.7008758755        0.8054740045
 H        -0.9521903693       -4.3984989637       -0.4987388402
 H        -1.2990469633       -4.3537008971        1.2654246155
 H        -2.1445947798       -3.1806456253        0.1422727460
 H        -5.4477591023       -4.8759666898       -8.0771705801
 H        -6.4510970553       -4.3392620066       -6.5695120346
 H        -5.9605699214       -6.0237505817       -6.9425215069
 H        -3.8684395863       -7.0965939828       -6.4096927259
 H        -2.3868596149       -6.0619356878       -6.2416815603
 H        -3.2823899282       -6.0855537029       -7.6876369049
 H        -5.4099170990        1.6811713165       -2.9480955731
 H        -3.9566955566        0.6686031183       -2.3637293747
 H        -5.2870372498       -0.0127074318       -3.4580858760
 H        -4.9582277026        2.5549320005       -6.0013018884
 H        -3.6835376465        3.4147638033       -4.9303432913
 H        -5.4215203118        3.1730899205       -4.4869987638
 H         2.8338423808        1.0536494415       -5.1130872855
 H         3.8015376214       -0.2099625604       -4.5509482092
 H         2.6343761420        0.3333554588       -3.4348941401
 H         3.7250791667       -1.7042270184       -6.1280393980
 H         2.8747339020       -0.4945116522       -7.1168194428
 H         2.1653950491       -2.1004585336       -6.7826431332
 H         3.3494037719       -8.0589131644       -3.5603530704
 H         2.0096008868       -6.7685870865       -3.4499621077
 H         3.4867108126       -6.5893461632       -2.4143831702
 H         5.9148193459       -5.2410347654       -4.6191159620
 H         5.8906428845       -7.0444704026       -4.5549008223
 H         5.6839875532       -6.0668787282       -3.1510495126
 H         0.0114042781       -7.3824787296       -7.6981345594
 H         0.8163149146       -8.3463680141       -8.7807323775
 H        -0.6721664858       -7.7980950321       -9.3655703946
 H         2.5410717607       -7.7191917652      -10.6701894110
 H         1.8281844833       -6.1799422755      -11.5264087955
 H         0.9156863253       -7.6166915753      -11.3257068456
 H        -4.0577436941        0.3892860091      -10.3131796207
 H        -2.3046653712        0.3527307948      -10.0658595275
 H        -3.3429202827       -0.5455715146       -9.0505550917
 H        -3.9583069959       -3.1766121516      -10.6878192934
 H        -4.2855645304       -2.5280495278      -12.2733425713
 H        -4.9515243104       -1.7713309715      -10.7620147381
 H        -2.1426038002        2.0569833612      -18.2387936626
 H        -1.5460519526        0.8871256038      -17.1298319988
 H        -1.7735094097        2.6156301223      -16.5413670339
 H        -3.7795905878        3.4474163451      -15.6515548555
 H        -5.3700614406        2.7925108335      -16.2934778976
 H        -3.9912828072        3.4905146087      -17.4837602169
 H        -7.3954708801        1.6779457817      -17.3355157250
 H        -9.0657672708        2.1932850033      -17.8711082784
 H        -7.7102734472        2.4677838949      -18.9167773802
 H        -8.7550270426       -0.8244994323      -17.4229026800
 H        -8.6628494599       -1.6450481597      -19.1292340677
 H       -10.0694338677       -0.5295655256      -18.5471494179
 H       -10.3203700602        2.2943689535      -24.7914490384
 H       -10.7589812423        0.5786270604      -25.2583635441
 H        -9.9587450854        1.7480100284      -26.3297915082
 H        -7.6802585040        0.6883709858      -26.6223335877
 H        -8.6552982348       -0.6602208011      -26.2090394170
 H        -7.0958942275       -0.4261213330      -25.4086409785
 H        -6.5409958011        6.3165815754      -25.2120245657
 H        -7.4061581045        7.2112993817      -24.0457553977
 H        -7.9221764809        5.6161040753      -24.3271481979
 H        -3.8450146571        5.9416684386      -22.9220829901
 H        -4.8544189750        6.9983737469      -22.0060551121
 H        -4.4419849372        7.3949058619      -23.7206250051
 Na       -6.0179057339        2.6615152192      -20.8047080969
 Na       -0.0974618850       -3.0123610819       -7.0014132287
