232

 C        -7.3850399622        7.0840762073      -21.4929213020
 C        -6.6982046959        5.7061983518      -21.7872738985
 O        -6.4813877073        4.9511213143      -20.8493729302
 C        -5.9990101715        5.6050170293      -23.2313981712
 C        -5.5246170312        4.1648354735      -23.5353374897
 O        -4.9882727812        3.5748264085      -22.5992471771
 C        -5.5004375146        3.4103942844      -24.8452881466
 C        -6.2953676500        2.0901925757      -24.8954842219
 C        -7.8444223962        2.2771455731      -24.5938366281
 O        -8.3161250323        3.3452349376      -24.2219191373
 C        -8.8115579593        1.0506245759      -24.7297578033
 C        -8.9817261682        0.2786390692      -23.3542727666
 O        -8.2103251696       -0.5340843046      -22.9373844262
 C       -10.3134290477        0.6929907067      -22.5283242627
 C       -10.0803167999        0.3205536560      -21.0604275913
 C        -8.7798132214        0.8398156247      -20.5615996453
 O        -8.3227360524        1.8373702902      -21.1225398107
 C        -8.1889604579        0.3761028669      -19.2347296485
 C        -6.6451346505       -0.1014015518      -19.4555532323
 O        -6.0984463880        0.2352168553      -20.5411876328
 C        -5.8919900162       -0.9431381137      -18.4174738014
 C        -4.4010546092       -0.4400850524      -18.3248527053
 C        -4.4267787110        1.0505119527      -18.0753110690
 O        -5.0039128364        1.8106730488      -18.7776681711
 C        -3.6084945964        1.6520235601      -16.8583845941
 C        -3.7368799991        0.7264931789      -15.5283521238
 O        -4.4717900005       -0.2068047559      -15.3702584636
 C        -2.6671175756        1.0051553134      -14.4088808101
 C        -3.1302414317        0.5834463831      -12.9481173459
 C        -2.3344831180       -0.6155536040      -12.3445985739
 O        -1.4091507648       -1.1094066840      -12.9402602786
 C        -2.7978698723       -1.3050106109      -11.0296517435
 C        -1.6839860391       -2.2136015279      -10.4610220091
 O        -1.2496145530       -2.0629881219       -9.3784898759
 C        -0.9829865478       -3.3036962738      -11.2948424498
 C         0.1006810285       -4.0752335169      -10.7118022430
 C        -0.2969240640       -5.3584843654      -10.0409984057
 O        -1.4505099319       -5.6319965365       -9.8805071031
 C         0.8271532355       -6.3237169562       -9.5702288426
 C         1.9043463618       -5.6144854913       -8.6171484029
 O         1.5556095601       -4.7251069903       -7.8505967936
 C         3.3703639625       -6.2592143743       -8.4446356636
 C         4.1611472128       -5.8358407332       -7.1337904877
 C         3.4578326368       -6.3742298439       -5.9108751062
 O         2.5891412283       -7.2331707424       -6.0272994785
 C         3.9214452752       -5.9869938584       -4.4044496171
 C         3.6616821146       -4.4272150436       -4.1930366288
 O         4.1576521743       -3.6971968991       -4.9990730516
 C         2.7368102311       -3.9537478604       -3.0622447230
 C         2.4867072561       -2.4254907174       -3.0932160601
 C         1.7553689410       -2.1699673858       -4.3927833090
 O         0.9481040944       -2.9804255647       -4.8068260773
 C         1.9644509942       -0.8481794320       -5.1987312312
 C         0.5173282781       -0.1845007256       -5.4587160414
 O        -0.2408324339       -0.7020926682       -6.2855677874
 C         0.0681590460        1.0801779058       -4.8721243740
 C        -1.2927827765        1.4986352331       -5.3325281746
 C        -2.3237585433        1.1809208588       -4.2779485300
 O        -1.9751200937        0.7484497227       -3.1825204712
 C        -3.8198997820        1.3232077292       -4.6243612301
 C        -4.2072407990        0.2729280302       -5.7279938224
 O        -5.1098128145        0.5302826547       -6.4865691136
 C        -3.5158171456       -1.1201397319       -5.5610671213
 C        -4.4030425584       -2.2229903963       -6.1958881569
 C        -3.6049346296       -3.5109169948       -6.4362400181
 O        -2.3929581979       -3.4650029294       -6.5705689299
 C        -4.4701625553       -4.8928915595       -6.2465257959
 C        -4.8077687457       -4.9670981000       -4.6405094921
 O        -5.5181546867       -4.1023026739       -4.1965559376
 C        -4.1940805003       -6.0163490473       -3.7944703423
 C        -4.5195093460       -5.8465003727       -2.2744053660
 C        -3.3399647031       -5.0699152213       -1.6871870965
 O        -2.7531764603       -4.2368437985       -2.3288759521
 C        -2.7573603506       -5.4046618172       -0.1799027246
 C        -4.0275352885       -5.5299094540        0.7433463238
 O        -4.7479115366       -6.4449651669        0.5738051974
 C        -4.3094812758       -4.4798409160        1.7546592601
 C        -5.1760797313       -4.9041235679        2.8987258810
 C        -5.5451121454       -3.7587684343        3.9143298350
 O        -5.5302878599       -2.5654541968        3.6291361084
 C        -5.9423972767       -4.1781517463        5.3045901351
 C        -4.7903121918       -3.7153163925        6.3450372200
 O        -5.1059507658       -3.6293479219        7.5273736546
 C        -3.3258044959       -3.7170503070        5.9508802744
 C        -7.3170489107       -3.4701387763        5.6557070543
 C        -6.1391389009       -5.6922837467        5.5575774859
 C        -1.9269657276       -6.7165996058       -0.0741065981
 C        -1.8629907978       -4.1805131727        0.1841198199
 C        -5.8675815710       -5.0237972940       -6.9332154437
 C        -3.5658610267       -6.0834970792       -6.4790006736
 C        -4.5744033517        0.7886861275       -3.2306641734
 C        -4.3597089241        2.7495699294       -4.9590475453
 C         2.9571903905        0.2104357418       -4.3564632044
 C         2.6999543852       -1.3880735096       -6.4648999447
 C         3.1147773651       -6.8810105573       -3.4242315240
 C         5.4309177328       -6.1908715050       -4.1718841821
 C         0.3480798848       -7.4587707174       -8.6580313158
 C         1.4328953544       -7.0217494535      -10.8341169895
 C        -3.2465904297       -0.1841791535       -9.9439375124
 C        -4.1593173766       -2.1187422771      -11.3200246476
 C        -2.1179672415        1.8885018827      -17.1557860394
 C        -4.4037283444        2.9334811843      -16.5260780393
 C        -7.9227136602        1.5869773939      -18.1659305939
 C        -9.1160940622       -0.6223597559      -18.4880565102
 C       -10.1813094660        1.5593778763      -25.3629860410
 C        -8.0844437149       -0.0093907771      -25.6744987114
 C        -6.8179283503        6.0567675714      -24.4250810868
 C        -4.7054205765        6.5206263856      -22.8941292130
 H        -8.3483451120        7.3705430546      -21.8004722136
 H        -6.6146133212        7.7600589017      -21.8311671313
 H        -7.4349366377        7.1086651978      -20.4067376045
 H        -4.4096016238        3.2888176398      -24.9328978600
 H        -5.7291726410        4.1207285124      -25.6386988285
 H        -5.6448287595        1.4009520624      -24.3660445547
 H        -6.2757798539        1.8619060608      -25.9295987861
 H       -11.1091199081        0.0644137963      -22.9415702820
 H       -10.4300988499        1.7853245514      -22.5328807126
 H       -10.0595663218       -0.7407550732      -20.9859445807
 H       -10.9654457998        0.5904364495      -20.4545852058
 H        -6.0088671348       -2.0582023659      -18.6668567721
 H        -6.3144253372       -0.7185938464      -17.4210765975
 H        -3.9108107108       -0.5152945584      -19.3670678926
 H        -3.7860236410       -0.8786094177      -17.5888860809
 H        -2.5285975072        2.0842651751      -14.4652460221
 H        -1.6767448159        0.6237682995      -14.7233777222
 H        -4.1425427006        0.2551291150      -13.1190638984
 H        -3.0827350983        1.5060789813      -12.3627964831
 H        -0.6178867136       -2.8394780269      -12.1805829171
 H        -1.7020265061       -4.0141144189      -11.6694053669
 H         0.6883244873       -3.5236491452       -9.9723937084
 H         0.7692994900       -4.3225386455      -11.6441398823
 H         4.0535288572       -6.0113686141       -9.4156000128
 H         3.3803545038       -7.3247874744       -8.4656826220
 H         4.3369390894       -4.7517925949       -7.1352954172
 H         5.1943763498       -6.2411107126       -7.1833723602
 H         3.0788776510       -4.3539321499       -2.1064724546
 H         1.7905063457       -4.5404743188       -3.0427979800
 H         3.4662315250       -1.8512980779       -2.9685022881
 H         1.7393276956       -2.2642890912       -2.2769459869
 H         0.9503628774        1.8702257722       -5.0057627336
 H         0.1021337510        1.0718355875       -3.7580214230
 H        -1.3944456291        0.9974921903       -6.2912198152
 H        -1.2747106745        2.6043370059       -5.6076357456
 H        -3.3442443402       -1.2503945988       -4.4798169861
 H        -2.5452674625       -1.1002702570       -6.0048210684
 H        -4.7428354640       -1.9852224153       -7.2122915371
 H        -5.3573106356       -2.4364621604       -5.7029695797
 H        -3.1632937325       -5.9827636189       -3.9361534914
 H        -4.4085235327       -7.0439409866       -4.1841336618
 H        -4.5358446435       -6.7654122117       -1.6822918181
 H        -5.3526226800       -5.1368324258       -2.0539096093
 H        -4.8002599709       -3.5787374828        1.1998427219
 H        -3.4176877599       -4.0789735655        2.2132637338
 H        -4.7258126676       -5.8523631894        3.2135872413
 H        -6.1644627362       -5.1478311535        2.4690251291
 H        -3.0215409480       -3.8468378059        4.9273966516
 H        -2.8124247864       -4.5301107127        6.5120697673
 H        -2.8696623858       -2.8604370730        6.3493079341
 H        -7.5409978286       -3.5914510310        6.7071695656
 H        -8.1518013427       -4.0083699805        5.1721394391
 H        -7.2149687619       -2.4153801032        5.4072069911
 H        -5.1538112792       -6.2062233945        5.4633137586
 H        -6.6749988537       -6.1134110554        4.7083669092
 H        -6.6024289192       -5.8580144950        6.5161257824
 H        -1.1003749702       -6.6106307399       -0.8053295287
 H        -2.7485776470       -7.4696072979       -0.2204253455
 H        -1.5640712689       -6.9531968825        0.8522514099
 H        -1.2227048225       -3.9156747621       -0.6429878691
 H        -1.2211800245       -4.4861018118        0.9989076806
 H        -2.4389554393       -3.2857553382        0.4673386500
 H        -5.8066385294       -4.7938246537       -7.9872736367
 H        -6.6226085190       -4.4880299092       -6.4038481916
 H        -6.0715067742       -6.1309960071       -6.8434051041
 H        -3.9091412203       -7.0475611606       -6.1920997074
 H        -2.6530206123       -5.7781834326       -5.9137724170
 H        -3.2297530969       -6.1676816449       -7.4485270184
 H        -5.5428842359        1.3240354206       -3.0904581820
 H        -3.8710749333        1.0224285581       -2.4875906548
 H        -4.7760786267       -0.3430794592       -3.2726156851
 H        -4.6649150346        2.8317405670       -6.0222369476
 H        -3.7549785719        3.5831280847       -4.4338790829
 H        -5.3673314707        2.7108466970       -4.5638675043
 H         3.0549751076        1.0648974665       -4.9750578644
 H         3.9418182390       -0.2249992459       -4.2650033369
 H         2.6363147921        0.3540978154       -3.3075455789
 H         3.6705217861       -1.8283025164       -6.1691195301
 H         2.8707779030       -0.6086899711       -7.1665698362
 H         2.1105804881       -2.1858972210       -6.9430397164
 H         2.8614385298       -7.8410465889       -3.9423659508
 H         2.1689345986       -6.4211206537       -3.1747671384
 H         3.7620967500       -6.9639153932       -2.4722525907
 H         6.1471912862       -5.7938392190       -4.8314354522
 H         5.7452731196       -7.2656175960       -3.9749142319
 H         5.6180540322       -5.7261975805       -3.2191582395
 H         0.3662404677       -7.2032956699       -7.5682517108
 H         1.0453456824       -8.3225501411       -8.6140288144
 H        -0.6471894364       -7.9630704804       -8.9055856955
 H         2.1764184146       -7.7816180467      -10.6210691882
 H         1.7621140434       -6.3151172263      -11.6134194284
 H         0.5756648822       -7.5503490397      -11.3221362335
 H        -3.9870803505        0.5195061083      -10.2866342732
 H        -2.3506585004        0.3807201805       -9.6548072338
 H        -3.6513162003       -0.6134617133       -9.0482486295
 H        -4.2359198161       -2.8746339071      -10.5604036418
 H        -4.0634672122       -2.5618970542      -12.2788397412
 H        -4.9677445874       -1.5042898320      -11.1762095977
 H        -2.0739162101        2.2323805725      -18.1876895840
 H        -1.7495492459        0.8877545635      -17.1298010401
 H        -1.6792743860        2.6179165036      -16.3873526022
 H        -3.9041314909        3.4793385156      -15.7573038712
 H        -5.4494242604        2.6634243690      -16.1735354032
 H        -4.3038610951        3.4628383679      -17.4919209134
 H        -7.2336811114        1.1293554190      -17.3926162352
 H        -8.7749898745        1.8403950069      -17.6830975203
 H        -7.5768059093        2.5495680193      -18.5887825111
 H        -8.6894821979       -0.6594887894      -17.5147972599
 H        -9.1150697713       -1.6239883462      -18.9382527700
 H       -10.1643859401       -0.2896480382      -18.2989053712
 H       -10.6708397300        2.3255992089      -24.8418068797
 H       -10.7075092311        0.6329823821      -25.5368960340
 H        -9.9507307540        1.9577821988      -26.3512849290
 H        -7.6632585854        0.3207330874      -26.5927730638
 H        -8.7667582187       -0.8704184756      -25.8875110410
 H        -7.2478264741       -0.3932598555      -25.0019790249
 H        -6.2252499329        5.8792952643      -25.3649624035
 H        -7.0803801649        7.1100521373      -24.4122097470
 H        -7.7533304947        5.6053456066      -24.4999008817
 H        -3.9431909966        5.8444236435      -22.4315276116
 H        -4.8125572781        7.3260808465      -22.2162701090
 H        -4.2686128628        6.8503914111      -23.8827027579
 Na       -6.0937799574        2.7942545561      -20.8631723542
 Na       -0.1471746089       -3.0393382023       -7.0482450170
