232

 C        -7.7467418806        6.9183906259      -21.8718016773
 C        -6.7565805474        5.7457139329      -21.8404224586
 O        -6.4640848364        5.1960902790      -20.8210673665
 C        -5.8461851941        5.4689269677      -23.2396964158
 C        -5.5519373779        3.9391103506      -23.4118370437
 O        -4.9949189922        3.1929437108      -22.6215665864
 C        -5.6791782253        3.3490823973      -24.8691471342
 C        -6.4162565432        2.0169780643      -24.8500695514
 C        -7.8852558286        2.2427822972      -24.5298291165
 O        -8.3398203190        3.2704130798      -24.1106180835
 C        -8.8694925327        0.9949204235      -24.8047383746
 C        -9.0218705607        0.5207059126      -23.3228623198
 O        -8.0701775907       -0.1126013847      -22.8771549098
 C       -10.2918975766        0.8265830248      -22.4655679684
 C        -9.9849770490        0.2472952863      -21.0464915587
 C        -8.7081350273        0.8525747469      -20.4828621474
 O        -8.2122478325        1.8591877687      -20.9706137664
 C        -8.1338471467        0.3315383935      -19.1368792638
 C        -6.6338339835       -0.2724289932      -19.5353687966
 O        -6.0516147074       -0.1698082547      -20.5492345393
 C        -5.8534396358       -0.9459430003      -18.2892259124
 C        -4.5085331412       -0.3393667664      -18.2639533797
 C        -4.5327392490        1.2243929653      -17.9038491479
 O        -4.9574844701        2.0260492529      -18.7499898664
 C        -3.7815705950        1.8385264000      -16.7459766285
 C        -3.8458204730        0.9045062474      -15.4400899998
 O        -4.7311072481        0.0616636386      -15.4030403449
 C        -2.7971148535        1.1103233447      -14.3887307668
 C        -3.2519752576        0.5994858768      -12.9936916701
 C        -2.2592508634       -0.4898494130      -12.4248292094
 O        -1.3984479211       -0.9359793857      -13.1138293359
 C        -2.7254871126       -1.2266635325      -11.0513011019
 C        -1.7315073218       -2.1923800937      -10.3551214869
 O        -1.5106865717       -2.0987238354       -9.1333015853
 C        -1.2815826789       -3.3548752681      -11.1154107144
 C        -0.0830519750       -4.1140162932      -10.4676697199
 C        -0.4513171371       -5.4239289820       -9.8065862386
 O        -1.5914870263       -5.8767781327       -9.6778752606
 C         0.6763649824       -6.2480824222       -9.2598878825
 C         1.8681277498       -5.4775627833       -8.5290115360
 O         1.5562112670       -4.4070045971       -8.0188323813
 C         3.2806084816       -6.0665832510       -8.4268287561
 C         3.9613902874       -5.5711719378       -7.1221940622
 C         3.5607694989       -6.4503547700       -5.9238990630
 O         3.0975534524       -7.5313741163       -6.0834421562
 C         3.9708841190       -5.9495695716       -4.4710577573
 C         3.7428803025       -4.4051369786       -4.1295887918
 O         4.1485533304       -3.5119302633       -4.8790005053
 C         3.0066679926       -3.8619439629       -2.8147592888
 C         2.4372675139       -2.4508844987       -3.0664214642
 C         1.7157418569       -2.2609104293       -4.4330703237
 O         0.9887362655       -3.0913659935       -4.9059057181
 C         2.0118406586       -0.7880757130       -5.1716841897
 C         0.5870309400       -0.2202596555       -5.4906894590
 O        -0.2085144842       -0.7673750466       -6.2101383499
 C         0.3121607548        1.2321214389       -5.1448909126
 C        -1.1723801926        1.7613199363       -5.2464085020
 C        -2.0902572646        1.0872601900       -4.2327161986
 O        -1.6717977790        0.7732159345       -3.1555050656
 C        -3.7463325596        1.2094053885       -4.5075011177
 C        -4.1478890510        0.2184157277       -5.8202878673
 O        -5.0914427183        0.5178603241       -6.5726236817
 C        -3.4824943710       -1.1566991111       -5.9442215505
 C        -4.3848020844       -2.2700527603       -6.3812075696
 C        -3.6901531283       -3.6266110609       -6.3706327211
 O        -2.4928628953       -3.7166611862       -6.6568726049
 C        -4.4753879981       -4.8672982545       -6.1251854432
 C        -4.8641443339       -4.9906884198       -4.6137000273
 O        -5.6765559648       -4.2044129789       -4.1316920138
 C        -4.2412219642       -6.1192097522       -3.7323000050
 C        -4.3504403102       -5.9492990612       -2.2512219953
 C        -3.1743787156       -4.8852454700       -1.7317105170
 O        -2.6480549473       -4.0030203740       -2.4056601636
 C        -2.7812944547       -5.2336295758       -0.2732635738
 C        -4.0312723967       -5.3894729767        0.5925425792
 O        -4.7638501487       -6.4154857254        0.5247728452
 C        -4.3215157614       -4.3344539419        1.6323067636
 C        -5.1390984258       -5.0185160000        2.8637779357
 C        -5.4341467639       -3.9872077631        3.9299646573
 O        -5.3853041983       -2.7666858284        3.7300325905
 C        -5.9263174487       -4.4219355787        5.3247785279
 C        -4.8329331996       -3.9026184584        6.4136183273
 O        -5.0627053518       -3.6092121682        7.5241225706
 C        -3.3866778747       -3.9334773144        5.8650485257
 C        -7.3207811707       -3.7936284092        5.7427614813
 C        -5.9457007290       -5.9992011532        5.5309404046
 C        -2.0343664004       -6.7085034526       -0.3028766575
 C        -1.7509774114       -4.1769411235        0.2163059811
 C        -5.8675762938       -4.7806495747       -6.9509761420
 C        -3.6689494179       -6.0384323209       -6.7615759475
 C        -4.6251570423        0.7036424323       -3.3314040079
 C        -3.9976886709        2.6628543571       -4.9693251868
 C         2.9787693085        0.1883012837       -4.4170897903
 C         2.6394863276       -1.0575503161       -6.6055299187
 C         3.1414726205       -6.7834623016       -3.4158368302
 C         5.4737001545       -6.3294635533       -4.3225934203
 C         0.2610267848       -7.4198141621       -8.4404538291
 C         1.3135573450       -6.8266256122      -10.6014324042
 C        -3.0835838155       -0.1710794771      -10.0093888602
 C        -3.9944698573       -2.0009157600      -11.5016711005
 C        -2.2943647888        2.1204739672      -17.2895951580
 C        -4.3988380271        3.1913274575      -16.2069143947
 C        -7.8850980385        1.5351589619      -18.2327802954
 C        -8.9385783709       -0.8161788130      -18.6018542149
 C       -10.2251506456        1.6390040931      -25.4324821488
 C        -8.4239390772       -0.1629793374      -25.6469996466
 C        -6.6229349007        6.1952790001      -24.3340823511
 C        -4.3909014560        6.0881641897      -23.0913301426
 H        -8.6517647088        6.6267464243      -22.4485009761
 H        -7.2484357347        7.7552548510      -22.3135542019
 H        -8.2418374704        7.0370313517      -20.8751269654
 H        -4.6829842993        3.5031383825      -25.3515942724
 H        -6.3333440943        4.0507537093      -25.3917381557
 H        -5.9646130709        1.2706839183      -24.1406853462
 H        -6.3567481074        1.5727654785      -25.9114284034
 H       -11.0505951221        0.2401904462      -22.9903835673
 H       -10.4403711036        1.8984957255      -22.4315421132
 H        -9.9550053787       -0.8761775517      -21.1248733592
 H       -10.8362266584        0.3761484900      -20.3786613793
 H        -5.6639945897       -1.9455868859      -18.6411073891
 H        -6.3042693482       -0.9777392859      -17.2739611712
 H        -4.1323873665       -0.4567608722      -19.2389879649
 H        -3.7997304069       -0.8470972724      -17.5347346193
 H        -2.3425186161        2.1020330088      -14.5013884286
 H        -2.0033226973        0.4129661906      -14.6844873703
 H        -4.2404721124        0.1499733497      -13.1519565192
 H        -3.2672501955        1.4595124844      -12.3567119570
 H        -1.0627772266       -2.9441250077      -12.1251642970
 H        -2.2085722199       -3.9276704347      -11.2732835032
 H         0.5908088891       -3.4874539613       -9.8146070395
 H         0.4802235649       -4.4473356535      -11.2917051105
 H         3.8111127428       -5.8264194533       -9.2576356822
 H         3.3023207926       -7.1627135840       -8.3471136611
 H         3.6539507857       -4.5332855254       -6.9144948712
 H         5.0335659726       -5.4540423784       -7.3065736657
 H         3.6103555112       -3.9302735524       -1.9064139452
 H         2.2114468466       -4.5444615585       -2.5183772824
 H         3.2751616758       -1.7764726422       -3.0849354407
 H         1.7104249494       -2.2309971901       -2.2825739925
 H         0.9972028956        1.7295316452       -5.7285938753
 H         0.7128644876        1.5723953599       -4.1647832962
 H        -1.4411321408        1.7708643308       -6.3295540267
 H        -1.1540192344        2.8004481305       -4.9489274061
 H        -3.0757116320       -1.3298205018       -4.9171436615
 H        -2.6666653073       -1.0272893533       -6.6994360728
 H        -4.8554880560       -2.1167310214       -7.3518484930
 H        -5.2350437017       -2.2744165234       -5.7067047182
 H        -3.1289675275       -6.3701154578       -3.9536548824
 H        -4.6224070274       -7.1218934858       -3.9009889298
 H        -4.1155915223       -6.9255327470       -1.8585156113
 H        -5.2249909767       -5.5753446885       -1.8353189961
 H        -5.0090672447       -3.5844091632        1.3498298479
 H        -3.4107685377       -3.7835649639        1.9669584942
 H        -4.4951945243       -5.7593447313        3.3042171680
 H        -6.0416578976       -5.5070224434        2.4943282410
 H        -3.3410006832       -4.1720471167        4.7877401518
 H        -2.7509783187       -4.6293700623        6.3950004621
 H        -2.8303105305       -2.9939833063        6.0420636814
 H        -7.3506031436       -3.5490892709        6.8333571250
 H        -8.1242107235       -4.5000971180        5.5226345091
 H        -7.4009782161       -2.8326959034        5.2279041572
 H        -5.5285060827       -6.4595420004        4.6794380758
 H        -6.9516214378       -6.3913069682        5.5097113287
 H        -5.3357285003       -6.1876392966        6.4326989609
 H        -1.0720175589       -6.4730002241       -0.7308891421
 H        -2.6789070451       -7.4783306342       -0.6447474152
 H        -1.8457684863       -7.0082689518        0.7874007957
 H        -0.8283878621       -4.1830569205       -0.3802704290
 H        -1.4856976683       -4.2772973154        1.2555666198
 H        -2.1875934898       -3.2462544639        0.0317329380
 H        -5.5882683536       -4.5121866828       -7.9690952136
 H        -6.3169760131       -3.8780506036       -6.4752748817
 H        -6.5400255740       -5.5548722921       -6.8220783011
 H        -4.1945536682       -7.0114962808       -6.6020961960
 H        -2.7156482380       -6.1246358492       -6.3186648856
 H        -3.4961637494       -5.8635550331       -7.8561583075
 H        -5.3528488129        0.0633093236       -3.7952405622
 H        -5.0702988923        1.6260592291       -2.8939085658
 H        -4.0821891862        0.1060596422       -2.6432550803
 H        -3.1374521038        2.9648293123       -5.5556452189
 H        -4.2393982745        3.1937088270       -4.1268010345
 H        -4.8337687094        2.7165758126       -5.6917052533
 H         3.1144746449        0.9812145972       -5.1807754476
 H         3.9739944337       -0.2873753963       -4.3024987961
 H         2.6789730282        0.4723959074       -3.4007202697
 H         3.4841279542       -1.6988126199       -6.5797549882
 H         2.9526476684       -0.1113116398       -7.1245375913
 H         1.8104782942       -1.5007933068       -7.1932689386
 H         3.1328037111       -7.7834920478       -3.7668199601
 H         2.0785720731       -6.5393427960       -3.3901318593
 H         3.5585387087       -6.6059441496       -2.5149732365
 H         5.9571425259       -6.3503141059       -5.3179981120
 H         5.6124125500       -7.4127561241       -4.0619587330
 H         6.1157806132       -5.7312130431       -3.6914219432
 H        -0.1486286221       -7.1508343590       -7.5019463645
 H         1.0445820398       -8.0985509620       -8.1279912228
 H        -0.4585633510       -8.0602011725       -8.9249574055
 H         2.0093811460       -7.6630514917      -10.3366870743
 H         1.9676616751       -6.0663681458      -11.0532271531
 H         0.6815318881       -7.1541478993      -11.3524514778
 H        -3.6901291014        0.7074296302      -10.3700073528
 H        -2.2137597095        0.2496396184       -9.5118665664
 H        -3.6943545033       -0.6530381122       -9.2393104986
 H        -4.6668448419       -2.0513115558      -10.6333800156
 H        -3.6859983977       -2.9613385536      -11.9515401246
 H        -4.6017950011       -1.4017207900      -12.2318517278
 H        -2.4920654024        2.9577897513      -17.9626666732
 H        -1.8410789602        1.2566464897      -17.8262323670
 H        -1.7696068877        2.4818970236      -16.4474614222
 H        -3.7485800897        3.5415050400      -15.4390743250
 H        -5.2824695239        2.9549374994      -15.7386755395
 H        -4.4413170015        3.8771801120      -17.0088579044
 H        -7.4917765558        1.1076630337      -17.3837692880
 H        -8.8305270728        2.1946781659      -17.9672763237
 H        -7.2522286895        2.2579036750      -18.7052467256
 H        -8.3924145812       -1.2980687850      -17.8115192136
 H        -9.3073314351       -1.4848192880      -19.4234825354
 H        -9.7857217995       -0.4608500724      -18.1651762555
 H       -10.4258959133        2.4167221686      -24.6050953211
 H       -10.9549040336        0.8135665779      -25.5270903200
 H       -10.1976097557        2.0954956268      -26.4352489935
 H        -8.4454304332        0.0917735523      -26.7446965821
 H        -9.1686037651       -0.9371544515      -25.4875759985
 H        -7.4473653442       -0.5264298651      -25.3986721568
 H        -6.1019898875        6.3547648167      -25.2542058524
 H        -7.1628750552        7.1060120675      -24.0873665881
 H        -7.4935096024        5.4858194860      -24.5872560730
 H        -4.0866865720        6.3569018594      -22.0635265704
 H        -4.3902455715        7.1251736554      -23.5542206709
 H        -3.7404501826        5.4825862050      -23.6721096103
 Na       -6.2246102396        2.5901513352      -20.7319719311
 Na       -0.3368377281       -3.0490766193       -7.2162505158
