232

 C        -8.0270769585        5.7946855291      -22.6001071625
 C        -6.7208107593        5.1595157287      -22.1080600971
 O        -6.5663239967        4.7110103382      -20.9987720189
 C        -5.6748911245        4.8129893411      -23.2568000442
 C        -5.7101337123        3.3599569375      -23.7034938146
 O        -5.5471356683        2.4297509226      -22.9253238860
 C        -5.7784243273        3.1640134082      -25.3202949698
 C        -6.6102445086        1.9609536056      -25.6443908565
 C        -8.0303393915        2.2359809159      -25.0134216216
 O        -8.2398495579        3.3923456444      -24.6397432695
 C        -9.2190975114        1.1767480098      -24.8110901886
 C        -9.1652886275        0.5446310907      -23.3686244517
 O        -8.5059600779       -0.4576483787      -23.1093588799
 C       -10.2228038393        1.0180044916      -22.2997905529
 C       -10.0433800120        0.2026374648      -21.0564973049
 C        -8.9126860725        0.8759473225      -20.1707793498
 O        -8.4955770166        1.9629684654      -20.3109801394
 C        -8.1959274527        0.1267007608      -18.9185955520
 C        -6.4961185962        0.1602063754      -19.2270025836
 O        -6.0483669647        0.4404580541      -20.3002624835
 C        -5.5769819155       -0.2889794799      -18.0172779078
 C        -4.2043401935        0.4923842447      -18.1283660861
 C        -4.4104317665        1.9321544888      -17.6843521470
 O        -5.1836441952        2.7293964379      -18.2648341998
 C        -3.5883037823        2.4390260044      -16.4572948781
 C        -3.8366907103        1.3397414422      -15.3054517830
 O        -4.9822670375        0.9919770282      -15.1416802090
 C        -2.7433632124        0.7983724114      -14.2978301842
 C        -3.3143612516        0.5034619588      -12.9424988594
 C        -2.4768593001       -0.4372900829      -12.1940494652
 O        -1.4543239129       -0.8929198199      -12.6330145246
 C        -3.0400463790       -1.0977482935      -10.7451775478
 C        -2.0789932323       -2.1177851212      -10.1716601274
 O        -1.3575023371       -1.7915949976       -9.2265773143
 C        -2.0110704365       -3.5054495358      -10.7642857534
 C        -0.6117125114       -4.1767927555      -10.5584558408
 C        -0.8391383135       -5.1838910729       -9.3584473352
 O        -1.9559657936       -5.6128252631       -9.1327507799
 C         0.4595041529       -6.0914108701       -8.9255891690
 C         1.5882471935       -5.1164573514       -8.3782218582
 O         1.2878327002       -4.0119595599       -7.9789225831
 C         3.0262451046       -5.5206420191       -8.1935921815
 C         3.7266974852       -4.9968557634       -6.8920097724
 C         3.8019696667       -6.1493385988       -5.8113213387
 O         3.6694927471       -7.2937265046       -6.1895532958
 C         4.2489595498       -5.8136991065       -4.3394351900
 C         3.8891233095       -4.3551591674       -3.9047464131
 O         4.7690449464       -3.5074070182       -4.0575857562
 C         2.4857909911       -4.0793904853       -3.3872015989
 C         1.9529078597       -2.5933145687       -3.4912579898
 C         1.7372641801       -2.1102004839       -4.9019014967
 O         1.0645802269       -2.8480515702       -5.5646562897
 C         2.1563102842       -0.7482639951       -5.5387821684
 C         0.8300309302        0.0594394531       -5.6617623704
 O         0.0350385854       -0.4818365905       -6.4159132705
 C         0.5377508738        1.6010635889       -5.3195397502
 C        -0.9502021701        1.9470170399       -5.2825136833
 C        -1.8161902382        1.0373972234       -4.4412352599
 O        -1.3488955286        0.1092840215       -3.7622685514
 C        -3.2931697212        1.0450785473       -4.7260326107
 C        -3.5268511158        0.1400248637       -5.9870313465
 O        -4.1559507214        0.4652094154       -6.9610391736
 C        -3.0309295468       -1.3158342764       -5.8894385127
 C        -4.1879903114       -2.2614167820       -6.1952141969
 C        -3.6737154894       -3.6528229062       -6.4651885259
 O        -2.4948140106       -3.8730454786       -6.6713780991
 C        -4.7527162215       -4.8543055548       -6.4636380001
 C        -4.9529882932       -5.1018526183       -4.8264323923
 O        -5.6839458642       -4.3820362995       -4.1827795777
 C        -3.9926156797       -6.1290554728       -4.1376546190
 C        -4.1214401404       -6.1546271226       -2.5442998875
 C        -3.2464688790       -4.9950956545       -1.9779434872
 O        -2.6859116380       -4.1432260425       -2.6601102239
 C        -2.8297945412       -5.0881738802       -0.4263729553
 C        -4.0044123400       -5.4036466015        0.5364624232
 O        -4.7844468502       -6.3427265746        0.3530553862
 C        -4.1386327813       -4.5437979565        1.7972979572
 C        -4.8378366932       -5.3022135519        2.9333499957
 C        -5.3300833536       -4.3438682656        3.9611210004
 O        -5.4635763966       -3.1934409076        3.7176143103
 C        -5.6433701239       -4.9437146123        5.3586201415
 C        -4.6765830141       -4.3705886983        6.5105578832
 O        -5.0650942944       -3.6484976382        7.3738426633
 C        -3.1269921743       -4.7136782322        6.3705824049
 C        -7.0936814195       -4.5656369946        5.8943469239
 C        -5.5931788635       -6.4997013115        5.3936713763
 C        -1.7571668739       -6.3098647636       -0.4375483626
 C        -2.0300757449       -3.8409444284        0.1042433104
 C        -6.1026968465       -4.2890934407       -7.1109711145
 C        -4.2619778721       -6.1551473782       -7.0483887657
 C        -4.0362946347        0.2460405481       -3.4803322618
 C        -3.8891188332        2.4089139713       -5.1333365363
 C         3.2463968384        0.0090809423       -4.6100092864
 C         2.6310556609       -0.9423477475       -6.9842867070
 C         3.6777911209       -6.9824004533       -3.4537844296
 C         5.7972395602       -5.9182051264       -4.4313668084
 C        -0.0221138250       -7.0266959543       -7.8322278355
 C         0.8816498766       -6.9424839674      -10.1375494143
 C        -3.4607327437       -0.0602271563       -9.6577969006
 C        -4.3669772932       -1.9159262590      -11.1929442602
 C        -2.0967775552        2.6141153841      -16.9032228566
 C        -4.2333121105        3.7719273257      -15.8729063336
 C        -8.5263459173        0.8371826293      -17.5779128617
 C        -8.6072540669       -1.3896686134      -18.7290215977
 C       -10.5642951743        1.8542389227      -25.0611493667
 C        -9.0592162706        0.0382590884      -25.7904854150
 C        -5.8596518425        5.9454450714      -24.2724997612
 C        -4.2261213893        5.0871780328      -22.7534046904
 H        -8.3362895661        5.1943313046      -23.4875429323
 H        -7.7967744122        6.8761257824      -22.9371879275
 H        -8.8123921133        5.8455008723      -21.8772043806
 H        -4.8142632027        2.9906021062      -25.5769617802
 H        -6.0751103196        4.0869476532      -25.7462302793
 H        -6.1967772536        0.9930204572      -25.2641261714
 H        -6.7892388635        1.8263165700      -26.6861772906
 H       -11.1428676355        0.9887244871      -22.8676584456
 H       -10.0523167651        2.0778926948      -22.0257678505
 H        -9.9053690145       -0.8433176745      -21.2208687758
 H       -11.0364911408        0.3008304662      -20.5567798017
 H        -5.3357572144       -1.2879574624      -18.0828120977
 H        -6.0772374551       -0.1654623593      -17.1119511171
 H        -3.8965787248        0.5411267222      -19.2060747695
 H        -3.3584444677        0.0744370978      -17.6531494966
 H        -1.9677768510        1.5663856347      -14.2897507002
 H        -2.3324464801       -0.1327900164      -14.7061506073
 H        -4.3640875524        0.1904181036      -13.0485033574
 H        -3.3084992473        1.5000080702      -12.4052819474
 H        -2.2601334806       -3.3329600842      -11.8284594429
 H        -2.7986193314       -4.2031327937      -10.3317429153
 H         0.2624353994       -3.5926743191      -10.4913358864
 H        -0.4306057986       -4.8328820535      -11.3692168401
 H         3.6404925835       -5.0806960786       -9.0227396777
 H         3.1603293961       -6.7031624707       -8.1183111248
 H         3.3594516242       -4.0159957038       -6.6452413921
 H         4.7467860797       -4.8073414845       -7.1431711183
 H         2.4221566376       -4.3167144088       -2.3166897946
 H         1.8489701198       -4.7483279622       -3.9876195124
 H         2.5668644380       -1.9097773730       -2.9631167994
 H         0.9940594383       -2.6663566187       -3.0111939541
 H         0.9981881498        2.2274945750       -6.0741272827
 H         1.0199785138        1.9907272465       -4.4805838793
 H        -1.2299594827        1.9774345947       -6.3169165824
 H        -1.0420501883        2.9537977934       -4.9856688486
 H        -2.5594661504       -1.5345249431       -4.9345542002
 H        -2.3678731281       -1.3855545945       -6.7882220389
 H        -4.6988360928       -1.9223290677       -7.1276533738
 H        -4.8932044349       -2.1756218240       -5.3455001471
 H        -2.9773975894       -5.8510513337       -4.2336229723
 H        -4.1029278829       -7.1590521822       -4.5990137399
 H        -3.7434109686       -7.0579758182       -2.0410028877
 H        -5.1479596434       -5.9091787805       -2.0743492816
 H        -4.7351801450       -3.6512080551        1.6201025320
 H        -3.2149154514       -4.1495110488        2.1177385836
 H        -4.0660861736       -5.9842069678        3.3662368374
 H        -5.5400108308       -5.9417918403        2.4073506708
 H        -3.0057807033       -5.7952186445        6.3200522476
 H        -2.4708877836       -4.1993008878        7.0731841166
 H        -2.7237543608       -4.4404341090        5.3508713018
 H        -7.0366485955       -4.8412263512        6.9358995744
 H        -7.8207882703       -5.0739410601        5.2952449687
 H        -7.3935817073       -3.4971751592        5.8532953511
 H        -4.6206494225       -6.7683059584        5.8013014797
 H        -5.9725460061       -6.9178023339        4.4514005486
 H        -6.3638486497       -6.7157582351        6.1324466250
 H        -0.8652408328       -6.0969713037       -0.9853584340
 H        -2.2827011033       -7.0720897081       -1.0163189688
 H        -1.6573525470       -6.5347501403        0.6699285359
 H        -1.5100496440       -3.3279325356       -0.6571328624
 H        -1.3218005192       -4.0813868781        0.8914445948
 H        -2.7215980945       -3.0641157167        0.5352003304
 H        -5.8721038590       -3.8640656439       -8.0751967315
 H        -6.6605317820       -3.6234892004       -6.4777400800
 H        -6.7151611555       -5.2166265783       -7.3724212471
 H        -4.9809232531       -6.9457299775       -6.8601969323
 H        -3.2679377898       -6.4149784287       -6.6411221011
 H        -4.1430312659       -6.0129008194       -8.1847653781
 H        -4.7045559796        0.9977841079       -3.1215745744
 H        -3.2378672962       -0.1566882067       -2.8101991440
 H        -4.6049144359       -0.5012261629       -3.9660813294
 H        -3.6389606538        2.6176040784       -6.1264876932
 H        -3.3969574181        3.1979099506       -4.5485727626
 H        -4.9437503842        2.3686527721       -4.8913203686
 H         3.5708521678        1.0317981790       -4.8857900614
 H         4.1117469367       -0.6712189688       -4.5492173336
 H         2.8609118713        0.2008947033       -3.6553868951
 H         3.5697142031       -1.5867678449       -6.9400934711
 H         3.0210602526        0.0058834179       -7.3278816331
 H         1.8717675654       -1.2477902515       -7.6871843836
 H         3.8973005043       -7.8866766151       -3.9597826291
 H         2.6497796813       -6.8351405826       -3.1736381329
 H         4.2832081154       -7.0487753993       -2.5576592970
 H         6.3344768452       -5.2834134904       -5.1800173010
 H         6.0596640015       -6.9114893626       -4.5986762496
 H         6.2268458122       -5.6323111150       -3.4202627387
 H        -0.2249831715       -6.3631342850       -6.9837046645
 H         0.5926345184       -7.8366243575       -7.4738920240
 H        -0.9371170745       -7.4420840342       -7.8973418357
 H         1.6239359798       -7.6825232173       -9.9024987951
 H         1.1900424631       -6.5700267325      -11.1110497794
 H        -0.0174126711       -7.6058295930      -10.3274358748
 H        -3.7641732708        0.8302889407      -10.1246022124
 H        -2.7220393139        0.2348476284       -8.9003423355
 H        -4.3504923028       -0.4156120919       -9.0331818958
 H        -4.6243982949       -2.5642935150      -10.3544793250
 H        -4.0170404524       -2.6250375539      -11.9601049858
 H        -5.2007289487       -1.3582553095      -11.7451103718
 H        -2.0990238153        3.2750927619      -17.7399691104
 H        -1.7281261753        1.6102235432      -17.1561166577
 H        -1.6088905780        2.9862210938      -16.0654675159
 H        -3.7367921623        3.8897506101      -14.8595657233
 H        -5.2877330845        3.6974181974      -15.8776365781
 H        -3.9763282910        4.5797069051      -16.5170681994
 H        -8.3579978171        0.1900834796      -16.7029372034
 H        -9.6505670307        0.9172757153      -17.6180974394
 H        -8.0350051874        1.7786961910      -17.4329541435
 H        -7.7875342496       -1.9607580256      -18.1263592239
 H        -8.4863875021       -1.9516738494      -19.6648565159
 H        -9.5986563278       -1.5427036985      -18.2228919825
 H       -10.8013352329        2.5037467428      -24.2179271289
 H       -11.2982267215        1.0075886221      -25.1188276464
 H       -10.3908412345        2.3330180204      -26.0407221984
 H        -9.4419203341        0.2538581013      -26.7959241925
 H        -9.5018222806       -0.8690972757      -25.4471421914
 H        -8.0302019111       -0.1952021053      -25.9431260300
 H        -5.2716122351        5.7409960938      -25.1864627376
 H        -5.4744200823        6.9396075975      -24.0408828753
 H        -6.8721008108        6.0572184689      -24.6356556724
 H        -3.8065494894        4.0571292665      -22.6828315468
 H        -4.2634166683        5.5833414635      -21.7749817925
 H        -3.6381760208        5.7149190580      -23.4857202904
 Na       -6.2384561500        2.6792614675      -20.6298120540
 Na       -0.5367433633       -2.7759796469       -7.3248890325
