232

 C       -20.0914163082       -4.6791403298       -5.5421050458
 C       -19.8743500106       -5.5167809168       -4.2919661664
 O       -18.8862501580       -6.1562144502       -4.2451270076
 C       -21.0761196951       -5.6884309109       -3.1304811511
 C       -20.4560541044       -5.2090358407       -1.7690315515
 O       -19.9594700915       -6.0583367273       -1.0251862199
 C       -20.4071698183       -3.6918863614       -1.4601701791
 C       -19.1342113108       -3.2462185334       -0.7513948677
 C       -17.9025426379       -3.7304052230       -1.5312028601
 O       -18.0209463903       -4.1297832656       -2.6573596298
 C       -16.3210859088       -3.7394364970       -0.9862025863
 C       -15.9838872177       -5.2684856000       -1.1684085950
 O       -16.6820507548       -6.0691860947       -0.5249497191
 C       -14.6735437028       -5.7444711257       -1.7486698642
 C       -14.2291403689       -7.2075033075       -1.3617600426
 C       -14.9613145767       -8.3374628666       -2.0527221943
 O       -16.1011640608       -8.3010030093       -2.3898459851
 C       -14.1314711599       -9.6449739748       -2.6102016803
 C       -12.9062782060       -9.0703732903       -3.4148172865
 O       -12.9046607427       -7.9168654741       -3.7928866073
 C       -11.6849388454      -10.0129594653       -3.5802318377
 C       -10.5405088642       -9.2420433231       -4.1857640806
 C        -9.1636388988       -9.7644321992       -3.6390693596
 O        -9.0436702997       -9.9792205806       -2.4643415833
 C        -7.9682820283       -9.8561307068       -4.7130110110
 C        -7.4809438657       -8.3163975280       -5.0594013153
 O        -7.7097802176       -7.4112799398       -4.3198062529
 C        -6.7977917627       -8.1250476856       -6.5167553005
 C        -6.5438973830       -6.6556185478       -6.6586902426
 C        -7.5901718911       -6.0016342687       -7.7512900032
 O        -8.1709087668       -6.7425962322       -8.5138454234
 C        -7.7113407064       -4.4523962607       -7.9887570044
 C        -6.5867308400       -4.1309294895       -8.9899619274
 O        -5.4541200733       -3.8590261314       -8.5814110620
 C        -6.7989190900       -4.0297791991      -10.5650318061
 C        -5.4208374884       -3.7521813096      -11.2509492428
 C        -5.7274498870       -3.5517718161      -12.7329479457
 O        -6.8707742763       -3.7567392747      -13.0294474545
 C        -4.5706174421       -3.2548658966      -13.6293885242
 C        -3.7720862868       -1.9533933852      -13.2252662514
 O        -4.2896297280       -1.2194968357      -12.4463759911
 C        -2.3759676204       -1.7465339336      -13.8423075737
 C        -1.3907547874       -2.3891328635      -12.8431040733
 C         0.0455113349       -1.8895751167      -13.1615805875
 O         0.3448869325       -1.0214341842      -13.9223947742
 C         1.3394092743       -2.5134619222      -12.3333252033
 C         2.5320134998       -1.4321662910      -12.1541315945
 O         3.6479745755       -1.5953003015      -12.6759725273
 C         2.0676701286       -0.3067336742      -11.3049069549
 C         3.1438702350        0.6314752865      -10.7015202888
 C         2.8014848774        2.1622678929      -10.8361377563
 O         1.9245339944        2.5048627143      -11.5689102260
 C         3.8126209067        3.2410944633      -10.2516198870
 C         4.2686822691        4.0389464486      -11.5163475171
 O         5.3054577396        3.6267140824      -12.0860238567
 C         3.3905721781        5.2169840782      -11.9735849952
 C         4.0868150129        6.5498879505      -11.8726498890
 C         5.4112503336        6.6910452265      -12.7288579472
 O         5.3708930777        6.4306490506      -13.9571314682
 C         6.6213013365        7.5232511528      -12.0774711003
 C         7.7141978798        7.5724877590      -13.2448910130
 O         7.8705029452        8.6070694869      -13.8409387118
 C         8.5727907239        6.2944987233      -13.7283945632
 C         9.2389239978        6.4145492908      -15.0662873836
 C         8.3586510798        6.0021997370      -16.2548487953
 O         7.3418757819        5.3465069937      -16.0620145005
 C         8.6659326293        6.4017502711      -17.7191375541
 C         9.0790358778        4.9937964040      -18.5632371961
 O         8.9682191949        3.9893540090      -17.8705735329
 C         9.5702897988        4.9691437357      -20.0464086785
 C         9.5788449535        3.6079883430      -20.6786158258
 C         8.1502735192        2.8885050151      -20.5738366815
 O         7.0799511937        3.4208295387      -20.4671046830
 C         8.1881134377        1.3258764770      -20.7056099703
 C         8.4990120486        0.6654192523      -19.3467594003
 O         9.3711231554       -0.2166011759      -19.1923686871
 C         7.7975268682        1.1957416128      -18.1229479975
 C         8.5077588977        0.9930716093      -16.7762735553
 C         7.5516139960        1.4560459102      -15.7034800092
 O         7.7855940291        2.5168319085      -15.1226567826
 C         6.3667093475        0.5691029218      -15.0127145293
 C         4.9590729994        1.2881982505      -15.2508500390
 O         4.8505182110        2.4738032537      -15.0232749814
 C         3.7556706205        0.5176746882      -15.7269522819
 C         6.2467859865       -0.9406170939      -15.5132215081
 C         6.6619126174        0.5107023156      -13.5486807817
 C         6.8376272239        0.7746642995      -21.1688288012
 C         9.2746191047        0.8306095758      -21.7329321882
 C         7.3190713145        6.8127964037      -18.2709530981
 C         9.7589616799        7.5750632193      -17.8256714950
 C         6.1027326385        8.9143182069      -11.7329731401
 C         7.1424300829        6.8220559155      -10.8854407476
 C         3.0695964628        4.1027197910       -9.2153120713
 C         5.1280536006        2.5314744073       -9.6264120321
 C         1.0247999250       -3.1605985609      -11.0010166591
 C         1.9778188298       -3.5934695392      -13.2649086326
 C        -3.8026928242       -4.5803034739      -13.5339746119
 C        -5.0613608313       -2.9938645891      -15.1297231556
 C        -9.1428633374       -4.1418738385       -8.6263099089
 C        -7.5630768418       -3.4683950004       -6.7217520286
 C        -6.7597296406      -10.5142418251       -3.8351386031
 C        -8.1656503881      -10.6936171721       -5.8728539912
 C       -13.7698120131      -10.5061004827       -1.3741190761
 C       -15.0927819846      -10.3337085213       -3.6170628644
 C       -15.5043978636       -2.8462418065       -1.9695297100
 C       -16.1558693068       -3.4044308339        0.4963061718
 C       -22.2814829599       -4.8902668756       -3.6101565641
 C       -21.3377093501       -7.2257228568       -3.0387668815
 H       -19.9203086548       -3.6458085939       -5.2246769497
 H       -21.1213484065       -4.7481802827       -5.9331136251
 H       -19.2628827918       -5.0415464947       -6.1848461669
 H       -21.2158097869       -3.4761001538       -0.7447951909
 H       -20.6857189329       -3.1105895298       -2.3630291543
 H       -19.0144134646       -3.5750541274        0.2662477802
 H       -19.1111216081       -2.1424764258       -0.7678213165
 H       -13.8953918399       -4.9985754895       -1.4194545164
 H       -14.7622628450       -5.6831137805       -2.8229824226
 H       -14.3428806234       -7.2896107234       -0.2850644371
 H       -13.1305844566       -7.2300523853       -1.6951503248
 H       -11.9980990525      -10.8798460353       -4.1816259470
 H       -11.4423386698      -10.3969803559       -2.5941807606
 H       -10.5983858188       -8.2123381819       -3.8878432172
 H       -10.5234325122       -9.3186597211       -5.2241173228
 H        -7.3546598596       -8.6089207439       -7.2925842753
 H        -5.8610732575       -8.5425403368       -6.3249873993
 H        -5.5399740515       -6.4297883006       -7.0646573415
 H        -6.4891929030       -6.0609534610       -5.6531916262
 H        -7.4914434414       -3.1028662662      -10.7691251905
 H        -7.2951977774       -4.9522682225      -10.9147344522
 H        -4.7409715090       -4.6520822243      -11.1708677473
 H        -4.9902482557       -2.9381280198      -10.7202919031
 H        -2.2765183333       -0.6709382761      -13.7324029007
 H        -2.4158316772       -2.0837416366      -14.8888711577
 H        -1.2563242138       -3.3863133221      -12.8486786253
 H        -1.6837446387       -2.1430009847      -11.7989498665
 H         1.3169397900       -0.6578895293      -10.5948515497
 H         1.5582275943        0.4904378793      -11.9280793718
 H         4.0530423964        0.5689460916      -11.3142305818
 H         3.3911280392        0.4425678554       -9.6967630066
 H         2.5510037650        5.1117981323      -11.3560553872
 H         3.0806071728        5.2354607508      -13.0402205205
 H         4.0972585221        6.7960398372      -10.8570228928
 H         3.4707584674        7.3637267346      -12.1680960968
 H         7.9618844658        5.4038989188      -13.6592748062
 H         9.3697954910        6.1415718276      -12.9906224305
 H        10.1954520665        5.9016647503      -15.1362282745
 H         9.4844672362        7.5461224495      -15.3469490565
 H        10.5220996315        5.5487095771      -19.9440265627
 H         8.8417416269        5.5837230219      -20.6507242224
 H        10.3218729258        2.9562960959      -20.2356901722
 H         9.9131322689        3.7136231089      -21.7841758896
 H         6.7628263033        0.7359558855      -18.1557810279
 H         7.5805745947        2.2582943995      -18.1884747779
 H         9.3445838149        1.6237009332      -16.7677519417
 H         8.9187951764        0.0049783039      -16.7425824606
 H         3.7358717710        0.0915749527      -16.7607639566
 H         2.9172003830        1.1935777095      -15.6785813332
 H         3.6161021943       -0.3661930999      -15.1170987166
 H         5.4902332772       -1.4325798835      -14.8944195669
 H         7.2006850162       -1.4345333728      -15.1324116802
 H         6.0165235759       -1.0400713341      -16.6163314041
 H         5.9155808164       -0.0823076318      -13.0696645546
 H         6.6026160689        1.5193289649      -13.0965527519
 H         7.5421719020       -0.0250347516      -13.2752473815
 H         6.8433147944       -0.3013855009      -21.1749502561
 H         6.6392294814        1.1316313058      -22.1943181772
 H         6.1430916715        1.0825889712      -20.3824179248
 H         9.4546633444       -0.2112927608      -21.5275139961
 H        10.2472877653        1.2912832882      -21.4810604537
 H         9.0191363247        1.1174531996      -22.7632995055
 H         6.8976006114        7.6125860104      -17.7077912423
 H         6.6700338045        5.9690515391      -18.1812515014
 H         7.4083075454        7.2403694323      -19.2537380389
 H        10.7090474505        7.2807949478      -17.2533600464
 H         9.3655989340        8.4097197963      -17.2327152132
 H        10.0780708894        7.7558946650      -18.8360346928
 H         6.8821953619        9.5311425035      -11.3370525157
 H         5.2536398395        8.9878403341      -11.0795392972
 H         5.9801398760        9.4943877026      -12.6708729942
 H         7.6856498252        5.9775778094      -11.2453802188
 H         6.3930372745        6.4091625060      -10.1291782491
 H         7.8219649256        7.4257945726      -10.3085639634
 H         3.0662086758        3.6259951379       -8.1375610935
 H         2.0133158198        4.3055218310       -9.5065216072
 H         3.5480408618        5.0829026374       -9.0091994990
 H         5.7955744556        3.3453940749       -9.3719758382
 H         5.5982419864        1.9113224758      -10.3712425748
 H         4.9043879074        1.9176017591       -8.7447638089
 H         0.6317206238       -2.5658622701      -10.2536172209
 H         1.9446575780       -3.4381737879      -10.4994213808
 H         0.5560359547       -4.0960249730      -10.9950778629
 H         1.3031856391       -4.3585950097      -13.5551408480
 H         2.7453419240       -4.1062228001      -12.7255824742
 H         2.3590019192       -3.1920792550      -14.1346847713
 H        -2.8085506301       -4.6151571280      -13.9984923311
 H        -4.4306916542       -5.4482331915      -13.8942070814
 H        -3.6931693270       -4.8976176820      -12.4841926863
 H        -4.2201644507       -2.5282712257      -15.7253538457
 H        -5.9439173137       -2.3564833760      -15.1577397242
 H        -5.2408315178       -4.0051557262      -15.5750083723
 H        -9.0778881839       -3.3720470662       -9.4226952451
 H        -9.8528834660       -3.9169499322       -7.8400347190
 H        -9.4245704375       -5.0322529644       -9.0839989053
 H        -8.5733479718       -3.2452679032       -6.3384634680
 H        -7.0954805578       -2.5444206828       -7.0125248676
 H        -6.8690239757       -3.9819858280       -6.0520546541
 H        -6.9205188657      -11.5587625893       -3.6599229688
 H        -6.8522456698      -10.1061284800       -2.8635658772
 H        -5.7341816299      -10.3428754142       -4.1638412116
 H        -8.4294334937      -11.7537785071       -5.5453315609
 H        -7.3460568354      -10.7805775975       -6.5526794263
 H        -8.8729135624      -10.2729520470       -6.5700262916
 H       -12.7359985517      -10.2524955006       -1.0984161931
 H       -13.7807379676      -11.5264440435       -1.5572544491
 H       -14.5420963497      -10.2287613380       -0.6224519740
 H       -15.3074483874       -9.6220121861       -4.3834941021
 H       -16.0863717380      -10.5153065863       -3.0624458401
 H       -14.6816584671      -11.3460323252       -3.9487462197
 H       -15.8445141597       -2.9089360442       -3.0117137036
 H       -14.4264454180       -3.0384551828       -1.7679446859
 H       -15.6129104013       -1.7579180572       -1.6887376663
 H       -16.3324708588       -4.2753406418        1.0930164549
 H       -16.7938346693       -2.5639035393        0.7482763391
 H       -15.1657676389       -3.0775684891        0.6450352105
 H       -21.9738114680       -4.1996561761       -4.3211369973
 H       -22.7253427947       -4.4128770694       -2.7755033393
 H       -22.9913813625       -5.5919568816       -4.1952541993
 H       -21.8522030272       -7.3889149025       -2.0798575449
 H       -20.3852005870       -7.7814028561       -3.0078151689
 H       -21.9288806833       -7.6233854477       -3.8356827323
 Na      -18.0611549399       -7.1086661363       -2.1805139555
 Na        6.3453277118        4.1177726298      -14.3026379072
