232

 C        -8.1499500434        5.6008057180      -22.6250241848
 C        -6.8094983547        5.0332035075      -22.2492399901
 O        -6.6684784506        4.8170621095      -21.0673132595
 C        -5.6035338635        4.7937444526      -23.2387931686
 C        -5.7255578472        3.2553872423      -23.7771409864
 O        -5.6243730495        2.3312016566      -23.0149313225
 C        -5.7542080932        2.9776693649      -25.2822084946
 C        -6.7583200519        1.9011261250      -25.6809842222
 C        -8.1316076401        2.2479458149      -25.0906519860
 O        -8.2807369547        3.3608109132      -24.6780400614
 C        -9.2288435567        1.1475047760      -24.9007372394
 C        -9.2690607179        0.5086750037      -23.3978918614
 O        -8.6076977488       -0.4752820374      -23.1559797832
 C       -10.1452788849        1.0899506609      -22.2429927507
 C        -9.9329694608        0.2792391362      -20.8955405371
 C        -8.8168896615        0.8079767639      -20.0723500346
 O        -8.5739648513        1.9800574066      -20.2746194188
 C        -8.0655700041        0.0530408731      -18.9173516780
 C        -6.5466685510        0.2349558619      -19.0954188227
 O        -6.0541904367        0.5170024642      -20.1501275253
 C        -5.5952181918       -0.0568615125      -17.9908174108
 C        -4.2586497613        0.5793113484      -17.9769399793
 C        -4.4147162416        2.0799973684      -17.6180107126
 O        -5.1456166671        2.8467069853      -18.2547871232
 C        -3.5710529239        2.5685072141      -16.3557873998
 C        -3.9266513337        1.4205184395      -15.2471276396
 O        -5.0718877339        1.0396880216      -15.2282192859
 C        -2.8176366751        0.8704990457      -14.3446919804
 C        -3.3437309241        0.6030948746      -12.9321823315
 C        -2.4977828084       -0.5100608624      -12.1581476006
 O        -1.4486700585       -0.8154606713      -12.6514790886
 C        -3.1384245244       -1.1806019822      -10.7623976801
 C        -2.1250992267       -2.1027085351      -10.1774623116
 O        -1.3888636192       -1.7660649789       -9.2310291321
 C        -2.0095141055       -3.5251114478      -10.7752953833
 C        -0.7307271055       -4.2003744306      -10.4605679704
 C        -0.8591638503       -5.3316052521       -9.4332142181
 O        -1.9620214157       -5.5240034629       -8.9442984936
 C         0.3542357489       -6.0052662257       -8.7761691862
 C         1.5428634510       -5.0425016127       -8.3328248818
 O         1.3422556398       -3.8470148502       -8.1609065897
 C         2.9807771433       -5.5888633067       -8.2574577535
 C         3.6726809329       -5.0403108682       -6.9449273528
 C         3.8234632457       -6.1474360252       -5.9056213187
 O         3.6609328527       -7.2865396266       -6.1832474402
 C         4.3471986512       -5.7868762736       -4.4217795079
 C         3.9222486512       -4.2944392432       -3.9195288570
 O         4.7880561776       -3.4493859593       -3.7538666239
 C         2.4486886743       -3.9792849955       -3.4196583482
 C         1.9942996586       -2.4805814396       -3.5527504000
 C         1.5811712491       -2.1307235340       -4.9871078311
 O         0.9059566811       -2.7966244143       -5.7197786799
 C         2.0939984579       -0.7222213497       -5.5187010279
 C         0.8359144404        0.0994513530       -5.8699649105
 O        -0.0719009570       -0.3465767314       -6.5193237004
 C         0.6604166598        1.5646451181       -5.2977443691
 C        -0.8410775407        2.0247321557       -5.1920830312
 C        -1.6299165538        0.9453360295       -4.4797752032
 O        -1.0440321951        0.1141041674       -3.8304130535
 C        -3.2723326563        0.9389952622       -4.7216554978
 C        -3.4144529453        0.0880643182       -5.9494313251
 O        -4.0271206140        0.5366902192       -6.9702543140
 C        -2.9233469472       -1.3589529544       -5.9412091884
 C        -4.1730295741       -2.2142894891       -6.3217253012
 C        -3.7554995962       -3.6443302408       -6.5543577370
 O        -2.5724983248       -3.8997695876       -6.7101504929
 C        -4.7191788488       -4.8940221774       -6.4007598863
 C        -4.9615373058       -5.1997877492       -4.7704704058
 O        -5.7621432448       -4.5018765381       -4.1846923700
 C        -4.0506797196       -6.1848358898       -4.1495045605
 C        -4.1021315632       -6.1062205349       -2.5346000043
 C        -3.1511397307       -5.0121135189       -1.9824022866
 O        -2.7588524380       -4.1277484369       -2.7052740167
 C        -2.7965199002       -5.0875828379       -0.4506896851
 C        -3.9853278782       -5.3880140949        0.4683660899
 O        -4.8009086238       -6.3289434666        0.2582776549
 C        -4.0506438926       -4.6378595195        1.7950929512
 C        -4.7563032501       -5.4196357151        2.8837547733
 C        -5.2811113130       -4.5112317662        4.0810953631
 O        -5.5129261464       -3.3098796863        3.8221660671
 C        -5.6565286776       -5.0991909693        5.4981984637
 C        -4.6625176116       -4.4412430803        6.4833661626
 O        -5.0251184211       -3.6990484596        7.3675997378
 C        -3.1526200245       -4.7307950791        6.4129671780
 C        -7.0591588463       -4.5297944835        5.8310202233
 C        -5.6083348084       -6.6832209533        5.4144714796
 C        -1.7119750263       -6.2471589793       -0.3844525245
 C        -2.0475217097       -3.7379015699       -0.1517674857
 C        -6.1053416066       -4.4155241848       -6.9792584760
 C        -4.3127702228       -6.1311369037       -7.1670231992
 C        -4.0929123459        0.3281754591       -3.5836680772
 C        -3.8727119539        2.4171441694       -5.0201258039
 C         3.1887265591       -0.0444647208       -4.6178427580
 C         2.8297209757       -1.0147990122       -6.8873455976
 C         3.7732826723       -6.8500548976       -3.4083073921
 C         5.8376817127       -5.9005147748       -4.6030126067
 C        -0.0831771131       -6.9657414713       -7.7091039775
 C         0.8741398956       -6.8879928882       -9.9904780957
 C        -3.4876126918       -0.0704330358       -9.6945011331
 C        -4.4665943295       -1.9247992177      -11.0133691039
 C        -2.1425116676        2.5441411724      -16.8597389679
 C        -4.0474633887        3.8504414230      -15.7403008157
 C        -8.5282883807        0.7106038005      -17.6253611550
 C        -8.3633496509       -1.4784253309      -18.7806469886
 C       -10.6530120924        1.9931700080      -25.1035286353
 C        -9.1417167557       -0.0202141932      -25.9108573879
 C        -5.6476677363        5.9741942633      -24.3466166154
 C        -4.1518874007        4.8315586748      -22.5199777550
 H        -8.5228473019        5.2445892789      -23.5724347789
 H        -7.9102874216        6.6176082697      -22.7089523154
 H        -8.9115031984        5.5856430598      -21.7924040497
 H        -4.6962507861        2.8969439025      -25.5929308501
 H        -6.0923483321        3.9457742157      -25.5953863002
 H        -6.6126047563        0.8914211116      -25.4222449326
 H        -6.9358924050        1.8540643261      -26.7387148671
 H       -11.1406097739        1.0176677782      -22.7086424472
 H        -9.9755640340        2.1789687778      -22.1881250493
 H        -9.5984988805       -0.7186382878      -21.2253595760
 H       -10.9034471418        0.1195610802      -20.4604827630
 H        -5.3697865980       -1.1008282515      -18.0336806431
 H        -6.1075654040        0.0707697739      -17.0191993176
 H        -3.7580667272        0.4604858808      -18.9038425675
 H        -3.5413471232        0.0977619916      -17.2741084291
 H        -1.9156903512        1.5378763004      -14.5337865895
 H        -2.6552464638       -0.0974706585      -14.8004421135
 H        -4.4063112373        0.3507177300      -13.1050533252
 H        -3.3274143304        1.5901182260      -12.3949055222
 H        -2.1223214921       -3.3956264042      -11.8457668579
 H        -2.9009772211       -4.1063475907      -10.4013695440
 H        -0.0578803021       -3.4401509205       -9.8706840355
 H        -0.1435204820       -4.3616905168      -11.3420066956
 H         3.5026583449       -5.2294954333       -9.0892982408
 H         3.0889817849       -6.7375880243       -8.0971721685
 H         3.0674155500       -4.2131612873       -6.5296115512
 H         4.6141235461       -4.5649911798       -7.1234366082
 H         2.4756797505       -4.1967441470       -2.3316351899
 H         1.7663320429       -4.6196173442       -4.0049700791
 H         2.7856064992       -1.7953530624       -3.2457818494
 H         1.1047909699       -2.2941164747       -2.8523569882
 H         1.2438156742        2.3480567408       -5.7916194462
 H         1.1359925999        1.6437799589       -4.2139981821
 H        -1.1384819400        2.2763922245       -6.2504300602
 H        -0.9062321874        2.9273019801       -4.6747961263
 H        -2.7510889805       -1.5459478482       -4.9063209066
 H        -2.0890493285       -1.5942190554       -6.5884265835
 H        -4.6627858335       -1.8288328970       -7.2317093378
 H        -4.8829595444       -2.1277463465       -5.4375631015
 H        -3.0208877223       -6.2897915055       -4.4311818839
 H        -4.5623718161       -7.1079939458       -4.3548951504
 H        -3.7673273446       -7.0860648602       -2.0814415149
 H        -5.0975931288       -5.8513813831       -2.0784197197
 H        -4.5562819869       -3.6821076506        1.7769195981
 H        -2.9954946786       -4.3515417225        2.0507411023
 H        -3.9777372735       -6.1194589998        3.2957559440
 H        -5.3720013257       -6.0489592826        2.2755937070
 H        -3.0737638522       -5.7694069672        6.8118271650
 H        -2.5485739059       -4.0176188100        6.9631769764
 H        -2.6795764226       -4.8811714208        5.3808766922
 H        -7.1255483010       -4.4054179848        6.9140763522
 H        -7.8398703972       -5.0287152511        5.3379498127
 H        -7.1331565468       -3.5430344521        5.4083669517
 H        -4.5815088456       -6.8833173472        5.2339692806
 H        -6.3738797193       -6.9000642075        4.6654374241
 H        -5.9969364396       -7.1457045131        6.3668153372
 H        -0.8763387203       -5.8823821359       -0.9262641159
 H        -2.0791187248       -6.9779776788       -1.0273363784
 H        -1.5517845593       -6.5173469825        0.7136533210
 H        -1.2578330591       -3.3940632545       -0.8829893822
 H        -1.5944053731       -3.6748136984        0.8926979224
 H        -2.8207903019       -2.9663864629       -0.1581820191
 H        -6.0230149602       -3.8878581290       -7.9553571501
 H        -6.5495596133       -3.7425131691       -6.1860176396
 H        -6.7219508346       -5.2467380303       -7.1847860038
 H        -5.0750594630       -6.9493035305       -7.0608301604
 H        -3.3275760295       -6.4695615399       -6.9337123243
 H        -4.2992127910       -5.7986317758       -8.2477924752
 H        -5.0254348548        0.8132326549       -3.8159882974
 H        -3.6242400821        0.5669446062       -2.5806281769
 H        -4.1830212877       -0.7097799169       -3.8339209160
 H        -3.3680146767        2.8738533335       -5.9209502677
 H        -3.6396972683        3.0971928598       -4.2822708930
 H        -4.9841027633        2.2803826709       -5.1319891916
 H         3.5644403661        0.8729836143       -5.0661681407
 H         3.9834869958       -0.7511302798       -4.5165059328
 H         2.9231680279        0.3763479660       -3.6731228277
 H         3.6821845668       -1.6447744889       -6.7471912476
 H         3.1976268572       -0.1040612944       -7.4381174158
 H         2.0542440487       -1.5009012537       -7.5257769166
 H         4.1051015505       -7.8204660753       -3.7914135576
 H         2.6574847460       -6.6938488260       -3.2974230053
 H         4.2387688171       -6.8277425807       -2.4728526230
 H         6.1970040250       -5.5298999689       -5.5451026417
 H         6.2037578902       -7.0232308439       -4.4849840377
 H         6.3338359320       -5.3347210476       -3.8825877210
 H        -0.2771167597       -6.5470988332       -6.7490262599
 H         0.6220554580       -7.7950488898       -7.5324754270
 H        -1.0576221756       -7.4742765101       -7.8097830037
 H         1.7388633365       -7.6327429375       -9.8350999375
 H         1.2345767832       -6.2728883350      -10.8731839534
 H         0.1336842578       -7.4635855999      -10.3941017983
 H        -3.5588926704        0.9908858586       -9.9887796083
 H        -2.7246885086       -0.0890954238       -8.9607675616
 H        -4.3661957850       -0.3122548328       -9.0944160090
 H        -4.6600334000       -2.4487306229      -10.0898478426
 H        -4.3604794520       -2.7171159517      -11.7685341666
 H        -5.2558230799       -1.2207433400      -11.3946458864
 H        -1.9611340308        3.4204137089      -17.4503249738
 H        -2.0763873112        1.6369854546      -17.4707505621
 H        -1.5395486718        2.4729257585      -16.0146311013
 H        -3.4701707238        4.0955877364      -14.8274464347
 H        -5.1412668349        3.6698784803      -15.6449332139
 H        -4.0132065283        4.6694905944      -16.5439452329
 H        -8.5314135203        0.1103625956      -16.7903188508
 H        -9.6580301059        0.9173096025      -17.8384577457
 H        -7.9527170172        1.5875680231      -17.3913695569
 H        -7.6674565955       -1.8904164410      -17.9854849132
 H        -7.9956891355       -2.1776055989      -19.6545538109
 H        -9.3589909893       -1.6424425134      -18.4513448403
 H       -10.4688871722        2.8842474028      -24.4763602590
 H       -11.4069807120        1.4373590103      -24.6282756261
 H       -10.7445318407        2.2055174629      -26.1095637355
 H        -9.5537557537        0.3393847010      -26.8585630038
 H        -9.7430387882       -0.8131218663      -25.5831189086
 H        -8.2340367278       -0.4626815981      -26.1374752221
 H        -5.1044150147        5.8590116594      -25.2409124725
 H        -5.3479745733        6.9538137777      -24.0452022356
 H        -6.7289099242        6.0641795730      -24.6648404119
 H        -3.8531888919        3.7640320613      -22.5131861762
 H        -4.0384051250        5.4265352027      -21.5657698225
 H        -3.5424617415        5.2726175390      -23.2560716811
 Na       -6.2152813223        2.7002849891      -20.6185019555
 Na       -0.4871564778       -2.7642722311       -7.3831072902
