232

 C        -7.3003080661        6.4408291134      -23.0519938304
 C        -6.6794219985        5.1350180932      -22.5245497696
 O        -6.9217920436        4.8019507540      -21.3882072071
 C        -5.5225202650        4.3034885590      -23.2323530078
 C        -6.0833775053        2.8584538184      -23.3808150128
 O        -6.3267815365        2.2344926832      -22.3751757717
 C        -6.1417871666        2.1556008764      -24.8627643975
 C        -7.3589559109        1.3283185773      -25.0669917250
 C        -8.6899684126        2.1121646179      -25.0338610729
 O        -8.8795615900        3.3135077258      -24.7903345788
 C        -9.8553222300        1.1213271326      -25.0615256944
 C        -9.6029730526        0.3114050513      -23.6986723273
 O        -8.9895039330       -0.7480599022      -23.6825727123
 C        -9.9447819192        0.9917138503      -22.3872875375
 C        -9.7078406312        0.1789743859      -21.1033815758
 C        -8.5463864227        0.7861881848      -20.2100954507
 O        -8.2828197196        1.9245839225      -20.2132781399
 C        -7.8926353191       -0.1321331650      -19.1002662359
 C        -6.3977131986        0.1904958216      -19.0724341239
 O        -5.8095384885        0.3349358596      -20.1091603179
 C        -5.7732115706        0.4279151567      -17.6185438677
 C        -4.3135051140        0.7504875320      -17.7440648141
 C        -4.1027814551        2.3318157358      -17.4916577258
 O        -4.5638679978        3.1655951865      -18.3160963680
 C        -3.4031324279        2.9288039454      -16.1646309921
 C        -4.0581237026        2.0665656563      -14.9908435087
 O        -5.2755108219        2.0798769942      -14.9027767093
 C        -3.1193685740        1.4044637385      -13.9142020658
 C        -3.8582202591        0.3404872331      -13.0089806576
 C        -3.0161685891       -0.6300929400      -12.2732524316
 O        -1.9254080730       -0.9414649776      -12.6589674026
 C        -3.4493625787       -1.0921705967      -10.8265132476
 C        -2.4306514691       -2.1272335889      -10.1986595999
 O        -1.7550005726       -1.8711447953       -9.1989957507
 C        -2.1567511694       -3.3915906074      -10.9434063006
 C        -0.7697767018       -4.0481529646      -10.6355874744
 C        -0.8358303730       -4.9857561679       -9.4052437907
 O        -1.9855675246       -5.2600090001       -9.0733653928
 C         0.3819980808       -5.7918198212       -8.7004275738
 C         1.5682226054       -4.9057475914       -8.3292670739
 O         1.4638310992       -3.6978425771       -8.1872229155
 C         2.8709572675       -5.5683878841       -8.2558740255
 C         3.7374549183       -5.0310210398       -7.0446510620
 C         3.6759298064       -5.9289108510       -5.7628924669
 O         2.8020351584       -6.7158772961       -5.5992095992
 C         4.6563787079       -5.5251022261       -4.5446513240
 C         3.9923354955       -4.2490314870       -3.9202747517
 O         4.6825956431       -3.2491625269       -3.7903085275
 C         2.4642964381       -4.1741187121       -3.5586154171
 C         1.9660531931       -2.6543436140       -3.6191656960
 C         1.4867732740       -2.1863104332       -4.9806072862
 O         0.4923601464       -2.6247770451       -5.4351565619
 C         2.2714474764       -0.8943271085       -5.7580801220
 C         1.0691853728        0.0715895655       -6.2216738043
 O         0.2320742172       -0.3652137771       -6.9842876175
 C         0.8831731014        1.5866044961       -5.5332145457
 C        -0.7145640066        1.9016432396       -5.5293671248
 C        -1.4221425406        0.9822678896       -4.5549568172
 O        -0.7793724585        0.1166904967       -3.9353603156
 C        -3.0069053440        0.9615871932       -4.4514289789
 C        -3.4184915441        0.2161651023       -5.6877223006
 O        -3.9024765255        0.7767604601       -6.6699537105
 C        -2.9235755293       -1.2587580103       -5.6816861560
 C        -4.1460990525       -2.2385772661       -5.8738185814
 C        -3.7000467173       -3.6841992848       -6.1763637484
 O        -2.5583731284       -3.9293879132       -6.5686117494
 C        -4.7035631157       -4.8063786501       -6.2143589919
 C        -4.8841303655       -5.2244617442       -4.7219510921
 O        -5.6950927406       -4.5968515669       -4.0556250354
 C        -4.0344971939       -6.3501767999       -4.1764643690
 C        -3.8819045537       -6.3547371945       -2.6733610012
 C        -3.3065638916       -5.0043594338       -2.1634640297
 O        -3.0245798769       -4.1480229468       -2.9902461052
 C        -2.8197722819       -4.8782174870       -0.6725567681
 C        -3.8320539262       -5.4300798557        0.3335191373
 O        -4.9677022900       -5.9034513357        0.1135497710
 C        -3.4618669331       -5.0814967015        1.7575917234
 C        -4.2862220061       -5.8814422177        2.8505667101
 C        -5.0037499723       -4.9121259576        3.9184808138
 O        -5.2026206716       -3.7514096266        3.7444493378
 C        -5.5218895434       -5.6116323327        5.3454428474
 C        -4.5623975592       -5.0051068482        6.3743258516
 O        -4.9497056389       -4.1650518124        7.1860764772
 C        -2.9972172644       -5.3225180517        6.3992252305
 C        -6.9792973492       -5.1028981562        5.5646428097
 C        -5.5772590093       -7.0832915625        5.1174974652
 C        -1.4768678902       -5.7123773276       -0.5066069041
 C        -2.5947612389       -3.4580696517       -0.3053377004
 C        -6.1217103333       -4.2559597348       -6.5888817003
 C        -4.1465696493       -5.8508367568       -7.0980341693
 C        -3.4308889771        0.1803097210       -3.1231931778
 C        -3.4754111752        2.4302968530       -4.4628086008
 C         3.4221633496       -0.2556522546       -4.8896833628
 C         2.9382801750       -1.3938599535       -7.0473616468
 C         4.6100905351       -6.6985831695       -3.5337856908
 C         6.0792874215       -5.1628504440       -5.0411704605
 C        -0.1603389510       -6.2343721360       -7.3033428406
 C         0.7528870484       -6.9341262747       -9.6565863462
 C        -3.5659237611        0.1575303175      -10.0259623217
 C        -4.7574900627       -1.9700580707      -11.0236191263
 C        -1.8383899600        2.9591206990      -16.3065922592
 C        -3.8761876246        4.3788234042      -16.1167265684
 C        -8.6643099670        0.2816818663      -17.8269886140
 C        -7.9771895552       -1.6908228705      -19.4330824482
 C       -11.2417256325        1.8711650998      -25.0882166534
 C        -9.8970552314        0.0259307157      -26.2028852148
 C        -5.0500620552        4.9788119984      -24.4837929891
 C        -4.2453512333        4.3104781434      -22.3040966654
 H        -6.6479092010        7.1505145243      -22.5719555852
 H        -8.3031669084        6.4537409217      -22.6344536309
 H        -7.4122331342        6.4846996156      -24.0715517199
 H        -5.2794919311        1.4705991595      -25.1049830058
 H        -6.0921820172        3.0875096689      -25.5475215112
 H        -7.5874274429        0.3618547569      -24.5266687715
 H        -7.3420964815        0.9066793203      -26.0775172711
 H       -10.8469962261        1.5932948782      -22.4835194096
 H        -9.2426835088        1.8490432249      -22.3358156960
 H        -9.5489200658       -0.8377278828      -21.4520834747
 H       -10.6293216410        0.2314106539      -20.4581822649
 H        -5.7937909167       -0.4803158076      -16.8903437289
 H        -6.4057874577        1.2324672041      -17.1222040468
 H        -3.9280367877        0.5316482484      -18.7795117390
 H        -3.7333316725        0.1973009356      -17.0489767049
 H        -2.8128104825        2.2396751174      -13.3014110508
 H        -2.1632398316        0.8955461120      -14.2201900506
 H        -4.6134591708       -0.2137641477      -13.5710565680
 H        -4.5246097877        0.7781119116      -12.2725858953
 H        -2.2694683199       -3.1554015089      -12.0131056084
 H        -2.8820328028       -4.1388079231      -10.6802205351
 H         0.0477835331       -3.3324951871      -10.4309528287
 H        -0.3715987355       -4.6002597093      -11.5833689222
 H         3.4082911270       -5.3413202102       -9.0834963068
 H         2.7458808944       -6.6896736076       -8.0724681828
 H         3.3977589426       -4.0012340210       -6.9211665481
 H         4.8250413352       -5.0446528151       -7.3453035267
 H         2.4243327953       -4.4522593070       -2.5012805900
 H         1.8856558393       -4.8240764311       -4.2584270143
 H         2.7467878531       -1.9065616059       -3.2700192618
 H         1.2217755217       -2.4351860516       -2.8182476040
 H         1.3950332395        2.3298840818       -6.2246612402
 H         1.2596850656        1.5718272244       -4.5190199185
 H        -1.0414190002        1.8418944166       -6.5958156535
 H        -0.8472858612        2.9810829633       -5.1630845036
 H        -2.2747049401       -1.6029374358       -4.8785490430
 H        -2.1742013761       -1.3631121701       -6.5089633165
 H        -4.6939551548       -1.8511801145       -6.7608665296
 H        -4.7882309706       -2.2022202483       -5.0136452725
 H        -3.0006763036       -6.2412194412       -4.4063111956
 H        -4.3665551727       -7.3644500769       -4.5078677093
 H        -3.2216705807       -7.1333890646       -2.3922664639
 H        -4.7434942202       -6.5417853019       -2.0383464859
 H        -3.5705691078       -3.9918511514        2.0524341765
 H        -2.4334115920       -5.3908474664        1.8476569809
 H        -3.7630506457       -6.6835026910        3.3850973600
 H        -5.1120927979       -6.4751489906        2.3649385986
 H        -2.4276011265       -4.4285929478        6.5862171662
 H        -2.6286400033       -5.4806929995        5.3657576347
 H        -2.7415498248       -6.2164827412        6.9963860530
 H        -7.3714997607       -5.5046334660        6.4670473981
 H        -7.6947362948       -5.4713927299        4.8429016068
 H        -7.0200764882       -4.0143094637        5.5671347639
 H        -4.5689091073       -7.5316649925        5.3507244496
 H        -5.8595792727       -7.2559250715        4.0452318712
 H        -6.3332469578       -7.4727451077        5.8035168009
 H        -0.7897457766       -5.1413654841       -1.0505748948
 H        -1.7038098503       -6.7093889537       -0.7971206430
 H        -1.1884182162       -5.6462270462        0.5702101280
 H        -2.1325129046       -2.9349058001       -1.1502528932
 H        -1.9451487934       -3.3251457713        0.6008875478
 H        -3.5822972596       -2.9039395714       -0.0548998418
 H        -6.1031089881       -3.6612494523       -7.5046754578
 H        -6.6894042533       -3.7443214347       -5.8311447188
 H        -6.7118802706       -5.2166483715       -6.8055044709
 H        -4.7091522846       -6.7410359279       -6.9587224272
 H        -3.1055522525       -6.0448118380       -6.8719786767
 H        -4.2607562237       -5.5692386308       -8.1823368047
 H        -2.5698762207        0.3131599974       -2.4935035267
 H        -3.5986000985       -0.8751333274       -3.4331415910
 H        -4.2378177035        0.7519356927       -2.6858353570
 H        -3.7718555006        2.7044888771       -5.4579591253
 H        -2.8830485290        3.2382924607       -3.9932856685
 H        -4.5434884637        2.4600841786       -4.0495972215
 H         4.0979377371        0.4002735285       -5.4412979645
 H         4.1582256041       -0.9753799147       -4.5101988933
 H         3.1605316201        0.1582959185       -3.9681541976
 H         3.6713100474       -2.1998331066       -6.7392490856
 H         3.4910154104       -0.5367548933       -7.3103938311
 H         2.4244153699       -1.8736544809       -7.8323687483
 H         4.9600398789       -7.6857805622       -3.9077924860
 H         3.5367307463       -6.8616804773       -3.2532004463
 H         5.1461773858       -6.3940074614       -2.5840703944
 H         6.0882494473       -4.1413002172       -5.3124561015
 H         6.3994127174       -5.8299627258       -5.8757486938
 H         6.7867478225       -5.3260963983       -4.2404708218
 H        -0.0998983073       -5.3642294044       -6.5753071977
 H         0.2679323710       -7.0165254201       -6.6297423094
 H        -1.1601741938       -6.5508638778       -7.3687950381
 H         1.6857041645       -7.4278768015       -9.3293542620
 H         0.8139924793       -6.7862467788      -10.7343034576
 H         0.0082782134       -7.7310855460       -9.6145264806
 H        -4.5462797640        0.2633017759       -9.6998776419
 H        -3.2774251227        1.0461138851      -10.5673257587
 H        -2.9961888683        0.1027927397       -9.0655173567
 H        -5.2328556502       -2.5736808153      -10.2678141751
 H        -4.5235708024       -2.6064005428      -11.8543379240
 H        -5.5482256377       -1.2609025816      -11.3529223639
 H        -1.5636333931        2.9400775422      -17.3790307418
 H        -1.4547919863        1.9935234821      -15.8521308867
 H        -1.4709979838        3.8185864008      -15.7803212112
 H        -3.7083692713        4.7253959403      -15.0092497563
 H        -4.9637185328        4.3626285709      -16.2209351840
 H        -3.3574153088        5.0362590341      -16.8474953778
 H        -8.4088782083       -0.4606741342      -17.0999214999
 H        -9.8288759114        0.4303018973      -17.9635942179
 H        -8.3728671729        1.2255075856      -17.5206082239
 H        -7.6462438291       -2.3773035292      -18.6611322363
 H        -7.4132455562       -1.9066456406      -20.3528071136
 H        -8.9231900809       -1.9604145507      -19.6305378695
 H       -11.3527516664        2.7544390164      -24.5151237478
 H       -11.9267800525        1.0528068656      -25.0280073620
 H       -11.2459785735        2.1986006278      -26.1147997290
 H       -10.1272741023        0.4724188862      -27.1797944170
 H       -10.7031890268       -0.6385916938      -26.0252414717
 H        -9.0344771967       -0.5757804917      -26.3305310451
 H        -4.2778480682        4.2849320630      -24.8308727160
 H        -4.5852577764        5.9434937307      -24.3578240780
 H        -5.6712322607        5.1052601778      -25.3268390108
 H        -4.5427983885        3.8174303661      -21.3802373250
 H        -3.8051612185        5.2701626566      -22.2178032173
 H        -3.5588011966        3.5766708028      -22.7499020923
 Na       -6.1398704295        2.9709182945      -20.0459783993
 Na       -0.5713267450       -2.6764876032       -7.4477419233
