232

 C        -7.0800026850        6.5958545102      -22.9257402348
 C        -6.5395160957        5.2302335357      -22.4756196848
 O        -6.8803580223        4.8773745980      -21.3440915412
 C        -5.4075307485        4.2173848970      -23.2738590445
 C        -6.0042660261        2.8148334960      -23.3976016109
 O        -6.3664609075        2.1238044815      -22.4480719377
 C        -6.0893318209        2.1660466365      -24.8210169430
 C        -7.3569485472        1.3384351039      -25.0810179266
 C        -8.7695091299        2.0411069560      -25.0887337403
 O        -8.7887409443        3.2053562218      -24.9067717757
 C       -10.0049792251        1.0440315097      -25.0550861529
 C        -9.7862994989        0.3020417500      -23.6507262946
 O        -9.3901445107       -0.8403602296      -23.7059956244
 C       -10.0123137248        1.0345325420      -22.3280119999
 C        -9.7143352965        0.1836671811      -21.1058929196
 C        -8.6162612641        0.6803687117      -20.2557508903
 O        -8.4100916684        1.8821127679      -20.3357746064
 C        -7.8802611544       -0.1959076718      -19.1521573819
 C        -6.3297002749        0.2179476460      -19.0029543709
 O        -5.6448388935        0.3717427007      -20.0172664612
 C        -5.7375229874        0.5425110369      -17.6547556686
 C        -4.1538024729        0.8829644534      -17.5803673998
 C        -4.0271665066        2.3839232419      -17.4550469164
 O        -4.4603154139        3.1064268468      -18.3932045880
 C        -3.4621264194        3.0151169235      -16.1894980137
 C        -4.0482131876        2.2320427423      -14.8646610835
 O        -5.2332944790        2.1280715228      -14.9000912327
 C        -3.2302879843        1.4708812400      -13.8370411764
 C        -4.0165648912        0.3862618862      -13.0708193673
 C        -2.9717865125       -0.6475246985      -12.3050466473
 O        -1.9082310896       -0.9732401537      -12.7621328922
 C        -3.5010906352       -1.2088171919      -10.9314980234
 C        -2.3298956510       -2.1494424553      -10.2961491597
 O        -1.9178344082       -1.7771368841       -9.2032586672
 C        -1.9025906528       -3.3666520083      -11.0840030938
 C        -0.5993039811       -4.0313158369      -10.5318853623
 C        -0.9146965641       -4.9279071349       -9.3125922950
 O        -2.0423598136       -5.2887317739       -9.0638928012
 C         0.3055331396       -5.6987359120       -8.7156760747
 C         1.5702499894       -4.8747042412       -8.3602352778
 O         1.4581372196       -3.6875144681       -8.1098213776
 C         2.8997657769       -5.6837519345       -8.1528205829
 C         3.8697997065       -5.0920099918       -7.0798545084
 C         3.5862424033       -5.8099865530       -5.8091984741
 O         2.6434441685       -6.5687939413       -5.6238665869
 C         4.5295317673       -5.3780924300       -4.6894288221
 C         4.0109426808       -4.1394785971       -4.0438149306
 O         4.7145179397       -3.1672727089       -3.8774824876
 C         2.5431446319       -4.0822516356       -3.5665833708
 C         2.0790598091       -2.6244709985       -3.6006721920
 C         1.5412944808       -2.1587823675       -4.9698998666
 O         0.6081774205       -2.7296514138       -5.4783482998
 C         2.1739899354       -0.9004831824       -5.6231131114
 C         0.9995615603       -0.0960473568       -6.1401234427
 O         0.2456535532       -0.4617475871       -7.0405010679
 C         0.8594211713        1.2937421039       -5.6287848062
 C        -0.5804190343        1.8277311683       -5.5394446223
 C        -1.3082376247        0.9602585261       -4.5218998308
 O        -0.7681773426        0.1344291565       -3.8285304182
 C        -2.8954397287        1.0081414908       -4.3988291750
 C        -3.3299054407        0.1731661607       -5.7165240640
 O        -4.0650100283        0.6280760576       -6.6244050730
 C        -2.9186156877       -1.2311928189       -5.6795244875
 C        -4.0729387318       -2.1938135171       -5.6637101822
 C        -3.6076583023       -3.5789415284       -6.1794679176
 O        -2.4665253016       -3.8006231947       -6.5357477473
 C        -4.6671495203       -4.7526087596       -6.2252916630
 C        -4.8371686949       -5.2250260425       -4.6790379381
 O        -5.6049194943       -4.6171715059       -3.9667409711
 C        -3.9707532064       -6.4167497698       -4.1205362155
 C        -3.9459327732       -6.3495275266       -2.6453614079
 C        -3.2865865587       -4.9960881471       -2.1483397473
 O        -3.1109952653       -4.1095565133       -2.9527981636
 C        -2.8310508333       -4.8221494696       -0.6381610207
 C        -3.8769902049       -5.4188842775        0.3752037578
 O        -4.9304150044       -5.9351660761        0.0064538623
 C        -3.4337193603       -5.1025602375        1.8185663756
 C        -4.2877264524       -5.9229495269        2.8634430385
 C        -4.9545373291       -4.9815506752        3.8313397887
 O        -4.9924658555       -3.7525919431        3.5532102660
 C        -5.4896750474       -5.6270388014        5.1093409899
 C        -4.5340746334       -5.0125705111        6.3133482374
 O        -4.9855992901       -4.3285545157        7.1993463486
 C        -3.1010661058       -5.5091790983        6.3203993188
 C        -6.9158955816       -5.1827984360        5.5818080532
 C        -5.4718642913       -7.2253658575        5.0994134291
 C        -1.4331232946       -5.5609161986       -0.5131684398
 C        -2.5675160428       -3.3282794640       -0.2746091991
 C        -6.1622606054       -4.2899730762       -6.6590841086
 C        -4.2399814294       -5.7903867781       -7.2056048915
 C        -3.1911842813        0.2336526819       -3.1097152024
 C        -3.3489823565        2.4754043388       -4.3030705733
 C         3.1920236459       -0.2112421792       -4.7969599616
 C         2.8886364092       -1.3627750100       -6.9472199388
 C         4.5377867809       -6.5460229868       -3.6295003176
 C         5.9403215050       -5.0698707432       -5.2520946274
 C        -0.1705996775       -6.2722872980       -7.3294976616
 C         0.6864637082       -6.9073202266       -9.5441132061
 C        -3.6566904776        0.0973136236       -9.9813309554
 C        -4.9072241050       -1.9200560662      -10.9471739826
 C        -1.9046658150        2.8940202949      -16.3055673400
 C        -3.9039724867        4.5152439909      -16.2149596984
 C        -8.6936433473        0.0835473161      -17.8796496386
 C        -7.9022156525       -1.7439223067      -19.3440894976
 C       -11.3714767041        1.8386477134      -25.0381250537
 C        -9.8750645702        0.0271644197      -26.1801461088
 C        -4.9611484963        4.9416705541      -24.6185575044
 C        -4.2902987678        4.3014546075      -22.2479086524
 H        -6.4690784255        7.1876334079      -22.2843834354
 H        -8.1035853158        6.6687793178      -22.6774207089
 H        -6.9827907149        6.7276223717      -24.0605610085
 H        -5.3343140249        1.4112153821      -24.9932134999
 H        -5.9139890720        2.9859194204      -25.4866833353
 H        -7.5942022248        0.4876365140      -24.3822077457
 H        -7.2038691817        0.7416725057      -26.0170230490
 H       -11.0863614131        1.2488886898      -22.3925958126
 H        -9.6732723592        2.0784257899      -22.2708483047
 H        -9.4457208302       -0.7716793438      -21.5478657481
 H       -10.6483364101        0.0925217398      -20.4846030652
 H        -5.7532281617       -0.3677712142      -17.0542202774
 H        -6.4314949663        1.2789551149      -17.1099401436
 H        -3.5350761635        0.5556412936      -18.4647195910
 H        -3.7639475224        0.4319632760      -16.6566482480
 H        -2.6474166201        2.0608699392      -13.1187855973
 H        -2.4733817742        0.9005077602      -14.3308471453
 H        -4.6526482617       -0.1737320027      -13.6866492214
 H        -4.7516245707        0.7471724494      -12.3309377180
 H        -1.8565246748       -3.1056901853      -12.1198468760
 H        -2.7461812875       -4.0436005447      -10.9277282015
 H         0.1773270478       -3.2740186800      -10.2803264067
 H        -0.1155482781       -4.6140757450      -11.2335116003
 H         3.4636886457       -5.8640541137       -9.0891913555
 H         2.5674872702       -6.6600639724       -7.6092703601
 H         3.6427793758       -3.9989585322       -7.0035504406
 H         4.9312091827       -5.2738839082       -7.2811185164
 H         2.5107491768       -4.4110497342       -2.5104242249
 H         1.9399846377       -4.6884207090       -4.2539264533
 H         2.8212041947       -1.9457225942       -3.2505715476
 H         1.3574412270       -2.4399091873       -2.8002670618
 H         1.3674690029        1.8421648447       -6.3449336018
 H         1.2953766455        1.3457661112       -4.5755132387
 H        -1.0430242404        1.8863132237       -6.6082078344
 H        -0.4905778171        2.8278814822       -5.1617525763
 H        -2.1982054866       -1.4907965323       -4.8705299288
 H        -2.1809321799       -1.4679006841       -6.4739564144
 H        -4.8658916028       -1.7263765137       -6.2142271542
 H        -4.3976650667       -2.3678154690       -4.6428355544
 H        -2.9252681863       -6.4711841308       -4.3953184500
 H        -4.4596693558       -7.4216191351       -4.4035071789
 H        -3.6642970045       -7.2285624671       -2.1712898987
 H        -4.9356853208       -6.1921554792       -2.2421920650
 H        -3.6897361218       -4.0438898169        2.1454991830
 H        -2.3535992353       -5.2961060612        1.8926465490
 H        -3.7994685540       -6.6550053063        3.5882042890
 H        -5.0112821652       -6.5517605745        2.3592902465
 H        -2.4640681154       -4.6700391631        6.2169960811
 H        -2.8119940227       -6.0543486485        5.4666461847
 H        -2.9406080826       -6.1513506127        7.2118165741
 H        -7.1125236358       -5.5468990963        6.5938316540
 H        -7.6960688665       -5.6916054083        5.0839192237
 H        -7.0796651126       -4.1126958317        5.5082060158
 H        -4.4862338037       -7.5782533254        5.3238812035
 H        -5.8039898468       -7.6808974832        4.1650102842
 H        -6.0784065836       -7.4418031975        6.0051518307
 H        -0.7801614061       -4.8605101582       -0.9823605290
 H        -1.6227936666       -6.5492926471       -0.8287045311
 H        -1.1374099580       -5.5498272821        0.5758841707
 H        -2.1192202468       -2.7244374713       -1.0894009044
 H        -1.9616463579       -3.2063777108        0.6598830010
 H        -3.5092359195       -2.8814390100       -0.0484815782
 H        -6.0339885555       -3.6320962042       -7.5284356093
 H        -6.8021469339       -3.7573651409       -5.9120802574
 H        -6.7256079193       -5.1088866830       -6.9892073433
 H        -4.9488674526       -6.5725683497       -7.0058847253
 H        -3.2792157369       -6.1587508809       -7.1276072595
 H        -4.4514871087       -5.4492930710       -8.2323155578
 H        -2.6495266335        0.7193623640       -2.3428643088
 H        -2.8154817757       -0.7884801374       -3.3120763178
 H        -4.2436155538        0.3371999149       -2.9300734154
 H        -3.7896574447        2.8072688579       -5.2966545874
 H        -2.6936319242        3.1970379279       -3.8950944990
 H        -4.3163207623        2.5616073093       -3.7278346846
 H         3.6636705837        0.6589535894       -5.2935190707
 H         4.1003527924       -0.7964847533       -4.6795299360
 H         2.9860110028       -0.0739545993       -3.7726045057
 H         3.6128791409       -2.1579959691       -6.8429076398
 H         3.3399714387       -0.4614768251       -7.3009894772
 H         2.1826373834       -1.8132843607       -7.6405036796
 H         4.9919357506       -7.4842183060       -4.0188924221
 H         3.5134144917       -6.8762032486       -3.2244903828
 H         5.1018929002       -6.1538649070       -2.8236259483
 H         6.0019827855       -4.1266577358       -5.7503510645
 H         6.3166177225       -5.9703862049       -5.8933767171
 H         6.5445597537       -5.0699710814       -4.3901632533
 H        -0.0711424419       -5.6981334675       -6.4385227648
 H         0.4229145254       -7.1532470575       -6.9748137631
 H        -1.1608087066       -6.7683861093       -7.3883251169
 H         1.4432949296       -7.6075333678       -9.0705763301
 H         1.0617638779       -6.6181598350      -10.5338794132
 H        -0.0999217648       -7.5038630913       -9.7778210609
 H        -4.7099472217        0.2860544413       -9.6748170869
 H        -3.2670093052        0.9404278405      -10.4586331165
 H        -3.1502040707       -0.0530889515       -9.0217661549
 H        -5.2187296022       -2.3753487653      -10.0489304586
 H        -4.8236227774       -2.7083162096      -11.6576688151
 H        -5.7432755579       -1.2624124947      -11.2031180208
 H        -1.5445051830        3.3227489582      -17.2842758717
 H        -1.6116629179        1.7963955090      -16.2406919238
 H        -1.5168066736        3.4564904536      -15.4568420972
 H        -3.6271287999        5.0056101962      -15.3227885130
 H        -4.9944585817        4.4906976588      -16.1843601371
 H        -3.4871800989        5.0188360120      -17.1028721470
 H        -8.3451602278       -0.5856519185      -17.1253972207
 H        -9.7797164052       -0.0001344945      -18.0547276817
 H        -8.6374258090        1.1785108438      -17.6129113113
 H        -7.4600003197       -2.1764790097      -18.5277253860
 H        -7.4384562101       -2.0849125237      -20.2565662621
 H        -8.8787388239       -2.1731478153      -19.3826637073
 H       -11.1767309359        2.7966167329      -24.4815397140
 H       -12.1860605335        1.1692131747      -24.7997956788
 H       -11.5373849017        2.1751654411      -26.0377707425
 H       -10.2574661999        0.4806631295      -27.1435595331
 H       -10.5845360854       -0.7820074664      -26.0115158378
 H        -8.9100008864       -0.3896913006      -26.3764307855
 H        -4.0857808488        4.4374172990      -24.9227709945
 H        -4.8177559076        5.9822347065      -24.7029322773
 H        -5.6238149930        4.6766485921      -25.4887960836
 H        -4.7175149851        3.9826961851      -21.2840489456
 H        -4.0363682787        5.3829352304      -22.1999303572
 H        -3.4852389833        3.7043045391      -22.4724895563
 Na       -6.3190620972        2.9711374017      -20.0600149613
 Na       -0.6341220310       -2.6646030430       -7.3907501493
