232

 C        -6.5678460456        6.6855505778      -22.9335253448
 C        -6.3766880202        5.1985396706      -22.4052355024
 O        -6.8350115956        4.9727581899      -21.3224413147
 C        -5.3925567160        4.2704149196      -23.2261417428
 C        -5.9639660862        2.8605814638      -23.4171850816
 O        -6.3389852028        2.2546209850      -22.4366758774
 C        -6.2106055703        2.3104237681      -24.8579533352
 C        -7.3062391926        1.2284979602      -24.9380122788
 C        -8.6832977211        1.8409898921      -25.0079978215
 O        -8.7329648646        3.0737854627      -25.1244260029
 C       -10.0007807176        0.9753589336      -24.8467849306
 C       -10.0707976259        0.0817901972      -23.5430564864
 O       -10.2050917702       -1.1337531062      -23.6653965491
 C       -10.2745926539        0.8099440721      -22.2104292176
 C        -9.6293925725       -0.0792906893      -21.0150346252
 C        -8.5896730938        0.6230819853      -20.2160690175
 O        -8.4302177061        1.7792906639      -20.4271694423
 C        -7.8092146428       -0.2176599351      -19.1273298490
 C        -6.3743308545        0.2999377930      -18.9079543516
 O        -5.6316992391        0.5268311523      -19.8036518569
 C        -5.8103239517        0.4181181606      -17.5057748311
 C        -4.3973531417        0.9062915934      -17.4729243944
 C        -4.1453384301        2.4062645685      -17.5189873944
 O        -4.4557590335        3.0892064844      -18.4570891621
 C        -3.5208832628        3.0602451691      -16.2415987933
 C        -4.1493610197        2.3163058320      -14.9911287394
 O        -5.3638606825        2.2948941615      -14.8014539069
 C        -3.3149989413        1.5703104476      -13.9819677661
 C        -4.1011739045        0.5169436943      -13.2073411230
 C        -3.1341742073       -0.4773880025      -12.5089025408
 O        -2.1312508241       -0.9015796339      -13.0173940228
 C        -3.4926602493       -1.1165361432      -10.9467641682
 C        -2.3629590620       -1.9939036479      -10.3543444491
 O        -1.9849757134       -1.9164545797       -9.1775300600
 C        -1.5352951050       -3.1472938984      -11.2003483747
 C        -0.4490372921       -3.7989914227      -10.3329231522
 C        -0.9900572594       -4.8576157732       -9.2539206026
 O        -2.1737464718       -5.1743411625       -9.1289868287
 C         0.1788834521       -5.8289963755       -8.6535928619
 C         1.4434870589       -5.1069389522       -8.3773600991
 O         1.3553810271       -3.9225306759       -8.0832129466
 C         2.8025452724       -5.7626145087       -8.4970918202
 C         3.8386898064       -5.3427394542       -7.4668186354
 C         3.5159258088       -5.6269128900       -5.9630458312
 O         2.4735069912       -6.1269514987       -5.6592918383
 C         4.6080750582       -5.2378315418       -4.8287381095
 C         4.0592274607       -3.8863246274       -4.0777801212
 O         4.7290438627       -2.8787268600       -4.1118112536
 C         2.7117088347       -3.9228340597       -3.3500774470
 C         1.9352952251       -2.5775679465       -3.3511054975
 C         1.5321395474       -2.2687090399       -4.8489744048
 O         0.9193613127       -3.1214097263       -5.4196067732
 C         2.1198101456       -0.9215089013       -5.6179909299
 C         1.0097565846       -0.0553599481       -6.1960780430
 O         0.1203809082       -0.5006867786       -6.8638582027
 C         0.8872869747        1.4746172518       -5.8622157306
 C        -0.6259390450        1.8237836824       -5.5922389469
 C        -1.2233585499        0.9627415148       -4.3844620997
 O        -0.4281824180        0.2337759523       -3.7877102173
 C        -2.7076263196        1.0216474757       -4.1603690831
 C        -3.3457170112        0.2688056518       -5.4539502653
 O        -4.2077301323        0.8280713699       -6.0533555461
 C        -2.8898801815       -1.2145236985       -5.7980896819
 C        -3.8959687328       -2.3652360627       -5.3844442560
 C        -3.5759949623       -3.6688260441       -6.0767008315
 O        -2.5115770763       -3.9515345181       -6.6552702991
 C        -4.6993285249       -4.7275678535       -6.1273697633
 C        -4.8848626133       -5.2629751150       -4.6800118966
 O        -5.6687679204       -4.5401038794       -4.0895451875
 C        -3.9548322476       -6.3627575790       -4.1229149423
 C        -3.8872884965       -6.2100022721       -2.5522684735
 C        -3.2526316442       -4.8693443732       -2.1902601689
 O        -3.0974672419       -3.9359065255       -2.9940207245
 C        -2.7862645254       -4.7388595756       -0.7168142836
 C        -3.6894834524       -5.3748586245        0.3573532035
 O        -4.6762748595       -6.0210136988       -0.0040074728
 C        -3.3575496762       -5.1765240925        1.8197265015
 C        -4.2002699529       -6.0017453139        2.6889864523
 C        -4.9008299593       -5.1803810653        3.8317145943
 O        -4.9972974900       -4.0000214991        3.7282804542
 C        -5.5343386091       -5.8153948818        5.0786364896
 C        -4.4972659002       -5.2676188104        6.3464894659
 O        -4.9365668787       -4.5641674798        7.2490891071
 C        -3.0090429868       -5.7227852046        6.2683449376
 C        -6.9132731421       -5.2139051112        5.2293169711
 C        -5.5143456334       -7.3573888615        5.2168156267
 C        -1.3445147123       -5.4118414441       -0.6761739058
 C        -2.6217667373       -3.1915778157       -0.4778600630
 C        -5.9939522942       -4.0292546912       -6.6369129024
 C        -4.3641553073       -5.9034930261       -7.0481031270
 C        -3.2643843007        0.3570618988       -2.8285523702
 C        -3.1735771181        2.4404342502       -4.4177824770
 C         3.0277712985       -0.1045791761       -4.6386671009
 C         3.0775038710       -1.3233960929       -6.8076061540
 C         4.5520775972       -6.3011451799       -3.7182983647
 C         6.0219919149       -5.1069764810       -5.3157829513
 C        -0.3314177711       -6.4183145423       -7.2613023377
 C         0.4057480028       -6.9636016910       -9.7039719759
 C        -3.7699678577        0.0876261659       -9.9986774867
 C        -4.8008646028       -2.0402006658      -11.0915910171
 C        -2.0048777730        2.8974566889      -16.2149314669
 C        -3.7864209486        4.5051982971      -16.0122567459
 C        -8.6100355378        0.0025832360      -17.8384682710
 C        -7.6221402353       -1.6569319924      -19.5867438824
 C       -11.2368784957        1.9795932786      -24.9609290982
 C       -10.0781066746        0.0514954263      -26.1557388993
 C        -4.9479272545        4.9319546839      -24.5082854166
 C        -4.0347556457        4.0976199243      -22.3445064694
 H        -5.9324637232        7.3003684640      -22.2429468252
 H        -7.6729272949        6.9204801526      -22.8064243361
 H        -6.3641965839        6.7527330961      -23.9347535249
 H        -5.3064894458        1.7791378150      -25.0985392502
 H        -6.2472847246        3.2140900679      -25.5049388415
 H        -7.3890832508        0.4882361104      -24.1859441280
 H        -7.2345074937        0.6765192898      -25.8490586956
 H       -11.3286453746        0.9163469730      -21.9115987615
 H       -10.0039700727        1.8671827507      -22.1934599664
 H        -9.2175515133       -0.9938461200      -21.4754388591
 H       -10.4384155304       -0.2874075831      -20.3597552653
 H        -5.7734879299       -0.5294513724      -16.9794094036
 H        -6.3593442495        1.0768124918      -16.9456180886
 H        -3.8210251998        0.5474957483      -18.3099977983
 H        -3.9398619000        0.5846567772      -16.5247454743
 H        -2.7671439848        2.1678221780      -13.2631711922
 H        -2.4941201295        1.0187182334      -14.5167924528
 H        -4.7326467811       -0.0990970887      -13.9254946406
 H        -4.8506559057        0.8460230068      -12.5133210227
 H        -0.9539244244       -2.7125572567      -12.0580083253
 H        -2.2710646700       -3.8824142542      -11.5607419884
 H         0.1181517483       -3.0005152156       -9.9338342663
 H         0.2925011401       -4.3971023489      -11.0092223543
 H         3.1915525783       -5.4777073645       -9.4668147399
 H         2.7543253213       -6.8133268738       -8.3712103992
 H         3.9554274113       -4.2920576821       -7.5328244367
 H         4.7705956013       -5.8408354122       -7.7208068584
 H         2.9530050381       -4.2068410778       -2.3249024450
 H         2.1449466136       -4.7280976706       -3.8511638805
 H         2.4777813117       -1.7792965896       -2.8098299394
 H         1.1076755745       -2.6005012442       -2.6833571924
 H         1.2301469506        2.0563385104       -6.8176565836
 H         1.3160985739        1.6984055764       -4.9398791393
 H        -1.1980448539        1.7117584978       -6.4324524802
 H        -0.6406348926        2.9115443879       -5.3572786547
 H        -1.9772018331       -1.4921070389       -5.3442773624
 H        -2.5280282707       -1.2867771662       -6.7912043877
 H        -4.9248791441       -1.9515269418       -5.5627462111
 H        -3.8718423642       -2.6520437632       -4.3079312446
 H        -2.9790376541       -6.1382667553       -4.6411213375
 H        -4.2066169693       -7.3583784020       -4.3983138448
 H        -3.1463832093       -6.9062191918       -2.0082508371
 H        -4.8405781667       -6.5151531348       -2.0395498843
 H        -3.5239073325       -4.1548900604        2.1009789174
 H        -2.3332560548       -5.4828523437        2.0317726289
 H        -3.7867963570       -6.9189530851        2.9678720411
 H        -5.0616991269       -6.2899566888        2.0393689129
 H        -2.3838465311       -4.9785383587        5.7629403495
 H        -2.8189759324       -6.6985566508        5.7840373328
 H        -2.7531313699       -5.9211101992        7.2791389423
 H        -7.3608526117       -5.2598983640        6.2121715716
 H        -7.7264920356       -5.7094230697        4.6337716677
 H        -6.7742855488       -4.1591298589        4.9546840646
 H        -4.6930694646       -7.8303881116        4.6518703958
 H        -6.3251536318       -7.6623437703        4.5758187490
 H        -5.5209817361       -7.7349977448        6.1923757247
 H        -0.7410537685       -4.9618101294       -1.4522977722
 H        -1.7068323347       -6.4306545927       -0.6586754030
 H        -0.8842789730       -5.1784697571        0.2587934426
 H        -2.0294100544       -2.7964557770       -1.2296284371
 H        -2.1759879663       -2.9440503703        0.4263836991
 H        -3.5833824193       -2.6687445712       -0.5822651243
 H        -5.8388914154       -3.5955222991       -7.6059576766
 H        -6.4630650383       -3.3464082416       -6.0024511753
 H        -6.7928507136       -4.8277728759       -6.7770840351
 H        -5.0359082251       -6.7401898777       -7.1539658176
 H        -3.3532099628       -6.2777294861       -6.7298614450
 H        -4.1535074177       -5.3930283199       -7.9903258923
 H        -3.6366833341        1.1967359505       -2.2142352078
 H        -2.5109341918       -0.2094563933       -2.3178453425
 H        -4.1409189524       -0.1917401785       -3.1700885628
 H        -3.0871317307        2.7909746881       -5.3790334164
 H        -2.6492965181        3.1203211801       -3.6942726879
 H        -4.1877275824        2.6184046299       -4.1560360640
 H         3.6314138436        0.6587027571       -5.0609034250
 H         3.8118051681       -0.5699181169       -4.0440328600
 H         2.3732515884        0.2192447549       -3.8092920798
 H         3.9264582807       -1.9269777594       -6.3648082354
 H         3.5140008943       -0.3987893886       -7.1967311401
 H         2.6174784703       -1.9453760035       -7.5582506521
 H         4.9087322198       -7.2182344986       -4.0846095972
 H         3.5984280532       -6.5482771310       -3.4050112908
 H         5.1287451415       -5.9398688190       -2.8560176429
 H         6.0435911140       -4.5252178103       -6.2510213038
 H         6.4082470756       -6.0821690448       -5.5196112682
 H         6.5934221103       -4.5927036594       -4.4914852395
 H        -0.6954191109       -5.6407559986       -6.5692512467
 H         0.3707160545       -6.8319420250       -6.5894355910
 H        -1.0491756566       -7.1515644864       -7.3665871856
 H         0.5767691577       -7.9137902745       -9.2359953458
 H         1.2027357895       -6.7002585022      -10.3959266005
 H        -0.4545745424       -7.2621647923      -10.3905332667
 H        -4.4871136634        0.7826764346      -10.3995829696
 H        -2.7786988395        0.6210838928       -9.8138755872
 H        -4.1851513260       -0.2546034468       -9.0440111849
 H        -5.2720508503       -2.2932557983      -10.1045578963
 H        -4.4851322315       -3.0167667097      -11.4934627123
 H        -5.6338445353       -1.6480195879      -11.6735112989
 H        -1.5846004491        3.7829427241      -16.6676101911
 H        -1.7230719373        2.0383747518      -16.7924354617
 H        -1.5847029943        2.8570496899      -15.2020758120
 H        -3.0245238936        5.0424345997      -15.3666833439
 H        -4.6742127093        4.6631522688      -15.4704297877
 H        -3.7283517918        4.9829039185      -16.9493685950
 H        -8.0423201619       -0.3767566623      -16.9809822879
 H        -9.5806710780       -0.6049421056      -17.9025042248
 H        -8.9875627633        0.9458447263      -17.7735958254
 H        -7.0018234574       -2.1942359181      -18.7584142873
 H        -7.1698085515       -1.7061333016      -20.6177936102
 H        -8.5127228800       -2.2627705614      -19.6996775153
 H       -11.1277055023        2.8761969291      -24.3759728023
 H       -12.1529347829        1.3263126584      -24.9313131361
 H       -11.2721772394        2.2696939495      -26.0557951385
 H       -10.0009496892        0.6383485643      -27.0638867474
 H       -10.9637245019       -0.5896317615      -26.3218453352
 H        -9.1517962014       -0.5752607398      -26.1648895410
 H        -4.4879914404        4.3594337891      -25.3631838243
 H        -4.2770757951        5.7827519571      -24.1986813327
 H        -5.7521331559        5.4500807142      -24.9460277620
 H        -4.3431864652        3.5204405755      -21.4787293016
 H        -3.6021238321        5.0179209170      -21.9979949569
 H        -3.3486982118        3.5151129674      -23.0632232523
 Na       -6.4331771143        2.8332170441      -20.2843357632
 Na       -0.6070871273       -2.7059004070       -7.4034586065
