232

 C       -20.1583180334       -4.6363756524       -5.4741260200
 C       -19.9097056868       -5.5496373127       -4.3444497403
 O       -18.9164857232       -6.2702723491       -4.1577576878
 C       -21.0721282690       -5.6653834342       -3.2076820362
 C       -20.4428662056       -5.2309058864       -1.8477328773
 O       -20.0376027240       -6.0379175976       -1.0514755877
 C       -20.4172181897       -3.6799437478       -1.5422984582
 C       -19.0889729039       -3.1992708979       -0.8291101318
 C       -17.8636973613       -3.7390107062       -1.6873822565
 O       -18.0667598575       -4.1907030458       -2.7983104878
 C       -16.3898129715       -3.7588507202       -1.0760531124
 C       -15.9088297164       -5.3264671609       -1.0414902283
 O       -16.6332817270       -6.1234313577       -0.4800015113
 C       -14.5120583550       -5.7169782501       -1.6250780840
 C       -14.1258457994       -7.1771509892       -1.3568841040
 C       -14.9651260314       -8.2317876397       -2.1663215876
 O       -16.1913718606       -8.2246274553       -2.2135656424
 C       -14.1979759012       -9.5013664019       -2.5942428100
 C       -12.8955183233       -8.9945621324       -3.3864727228
 O       -12.9534874774       -7.8468863289       -3.8373667171
 C       -11.6870725975       -9.9010283054       -3.5389770487
 C       -10.4834876668       -9.2739866090       -4.2528388323
 C        -9.1405128397       -9.6998635610       -3.5545258423
 O        -9.0418166950       -9.9898182132       -2.3798976536
 C        -7.9506931747       -9.8310830063       -4.5973754518
 C        -7.5245764551       -8.3996487316       -5.1064779791
 O        -7.7550399431       -7.4386369882       -4.3632194781
 C        -6.8965872471       -8.0402547010       -6.4521021543
 C        -6.4807723824       -6.5626315941       -6.6750499351
 C        -7.5621784665       -5.9432060503       -7.7329609036
 O        -7.9821029866       -6.7878541746       -8.4828242813
 C        -7.6902785131       -4.4938985042       -7.9574747159
 C        -6.4751239944       -4.1681309435       -8.8327247348
 O        -5.3425167957       -3.9878132845       -8.4263025112
 C        -6.7775316690       -4.2667242031      -10.3229875716
 C        -5.5372702599       -3.7598765593      -11.0942518579
 C        -5.8263707411       -3.6433255055      -12.6229775722
 O        -6.8955218300       -3.9166830248      -13.1274866391
 C        -4.6144474044       -3.3298507351      -13.6579027645
 C        -3.8243031869       -1.9916641944      -13.2530763121
 O        -4.3791008211       -1.2125774245      -12.5062671386
 C        -2.3759575911       -1.7387163722      -13.8005777526
 C        -1.3481660228       -2.3869052640      -12.8478217927
 C         0.1304029209       -1.9675096263      -13.1504553899
 O         0.2814286917       -1.1010593192      -13.9705287121
 C         1.3742815229       -2.5787402970      -12.3378097207
 C         2.4220317725       -1.4943923307      -12.0966473423
 O         3.5237546767       -1.5260246154      -12.5948093995
 C         2.0226385766       -0.2388515588      -11.2686126476
 C         3.2743329957        0.6567534148      -10.7065546807
 C         2.9326379187        2.1724527709      -10.8426139432
 O         1.8668365590        2.5688128880      -11.3823073610
 C         3.8644674408        3.1926350883      -10.2367739365
 C         4.2333607897        3.9573284266      -11.4905449128
 O         5.1368692215        3.6766849364      -12.1937860674
 C         3.3889922509        5.1620140471      -12.0483653306
 C         4.1777685447        6.4937121284      -11.8729516106
 C         5.3864609790        6.7476656574      -12.7637240559
 O         5.4885881507        6.3482233014      -13.9157267083
 C         6.6249414758        7.4377148841      -12.1502122760
 C         7.6094824818        7.6037818067      -13.3240229783
 O         7.8011166608        8.6650998580      -13.8923285691
 C         8.5990510916        6.3697787087      -13.6684666221
 C         9.2619816225        6.5169904197      -15.0059286550
 C         8.4021491297        5.8727895311      -16.1960391500
 O         7.4910400496        5.1491272680      -15.9429730396
 C         8.6201540237        6.2661601441      -17.7182488055
 C         9.0069485308        5.0272822309      -18.4523125844
 O         8.9436324956        3.9311500660      -17.8666972120
 C         9.4098786809        5.0629501475      -19.9570107743
 C         9.4193570817        3.7075325702      -20.7157998057
 C         8.2227680551        2.8490092966      -20.7655187457
 O         7.1179788700        3.4492097222      -20.6621941565
 C         8.2962359668        1.3254011469      -20.7951078362
 C         8.7020246566        0.7745739268      -19.2873483434
 O         9.4236643845       -0.1455215556      -19.1661478084
 C         7.7505749742        1.2473372246      -18.1443287429
 C         8.4930644385        1.0033906911      -16.7588734942
 C         7.6835719316        1.4369036769      -15.5935141823
 O         7.8557810783        2.4999505189      -15.0691610225
 C         6.3944485807        0.6523724808      -15.0970935411
 C         4.9674041609        1.3317131064      -15.3360147825
 O         4.7507140062        2.4706321286      -15.0205475974
 C         3.8146851214        0.5011055994      -15.8968431109
 C         6.3304889066       -0.8663221448      -15.7184478031
 C         6.4991789153        0.5628118604      -13.5650838472
 C         6.8722547735        0.6717212753      -21.1858291978
 C         9.3534925239        0.9823183611      -22.0204436389
 C         7.3130947302        6.8906402981      -18.4258338812
 C         9.7241193689        7.3656662279      -17.9124565940
 C         6.1725901425        8.9038190059      -11.6608851036
 C         7.2039538125        6.8540307757      -10.8491204303
 C         3.2334510330        3.9053243751       -9.0791824140
 C         5.1803581318        2.6083983208       -9.6445501275
 C         0.9280271900       -3.1343780954      -10.9501082915
 C         1.8601852120       -3.6662116171      -13.3751043191
 C        -3.7374702869       -4.5873618591      -13.6897656513
 C        -5.2050797428       -2.9766549875      -15.0860430438
 C        -9.0441127885       -4.0693239950       -8.6879971906
 C        -7.4906118203       -3.6033880875       -6.6756590571
 C        -6.7259950909      -10.4480413285       -3.7576613497
 C        -8.1662574581      -10.8518612038       -5.7471842498
 C       -13.8499631295      -10.3864936611       -1.3769279815
 C       -14.9647549540      -10.4294237627       -3.6203505593
 C       -15.5850495168       -2.8539703521       -2.0268083416
 C       -16.0590541854       -3.2878663012        0.3408716612
 C       -22.4158166562       -4.8314186343       -3.4982815794
 C       -21.4856458150       -7.1076312390       -3.1839873190
 H       -20.3069851871       -3.6478131260       -5.0368737466
 H       -21.1821581338       -4.9783031390       -5.9350325589
 H       -19.3053649232       -4.7213811307       -6.1365232718
 H       -21.2963452795       -3.3816190284       -0.9754449506
 H       -20.5741522807       -3.1552174207       -2.5045961156
 H       -18.9137309253       -3.6039359594        0.2042891126
 H       -19.0833141523       -2.0945061573       -0.7550320603
 H       -13.8008920967       -5.0684829830       -1.1558149997
 H       -14.5368137112       -5.4960622783       -2.6934571298
 H       -14.4139362686       -7.3052061250       -0.2216617996
 H       -13.0838586593       -7.2300781723       -1.5715406321
 H       -12.1304449037      -10.7144889674       -4.1825529345
 H       -11.5150197824      -10.3731611362       -2.5832355636
 H       -10.5268879363       -8.1848804126       -4.1325070094
 H       -10.4343662918       -9.5433938020       -5.3253140503
 H        -7.7022453366       -8.3455917072       -7.1375367707
 H        -6.0256203847       -8.6658531876       -6.5627961983
 H        -5.5083436406       -6.4838256621       -7.1058270834
 H        -6.3828789668       -5.9579017712       -5.8015805032
 H        -7.5736322608       -3.6283405055      -10.4589420985
 H        -7.0862103229       -5.3185967780      -10.5849692697
 H        -4.6903493991       -4.4715204806      -10.9511486793
 H        -5.2267549975       -2.7423139505      -10.6885164005
 H        -2.3450654258       -0.6562335486      -13.9351808049
 H        -2.4849136026       -2.2893366119      -14.7241611643
 H        -1.3280381348       -3.4722653532      -12.8656881442
 H        -1.6337052884       -2.1374559413      -11.8063948207
 H         1.4226503063       -0.5809376358      -10.3937686119
 H         1.3713840064        0.5567747037      -11.7351696259
 H         4.2159319702        0.5062332304      -11.1558195568
 H         3.3544001835        0.5503687746       -9.5855258880
 H         2.5089731337        5.2442029086      -11.4822458351
 H         3.1556863543        5.1002624722      -13.0810799435
 H         4.2619660052        6.6337436048      -10.8071488882
 H         3.5589872087        7.3875344350      -11.9522812500
 H         8.1394795857        5.3939630134      -13.5213085817
 H         9.4037345236        6.4371693303      -12.8606639563
 H        10.1908950636        6.0723934291      -15.0700336923
 H         9.4446445678        7.6118869550      -15.2772725406
 H        10.4333339474        5.4732247657      -19.8730662070
 H         8.8172148996        5.7893045672      -20.5077153856
 H        10.1774032585        3.0699093829      -20.2413204946
 H         9.7938978523        3.8835673782      -21.6879511789
 H         6.7313127102        0.7917656370      -18.0868369603
 H         7.5660088539        2.3533117378      -18.3566537309
 H         9.4666941878        1.4216258479      -16.7259141278
 H         8.6908717301       -0.0886575471      -16.7858486641
 H         3.8725284471       -0.1116780672      -16.7683774738
 H         2.9711861754        1.0690031505      -16.0066098783
 H         3.7348493443       -0.2425378575      -15.0944097340
 H         5.5533185425       -1.4043060301      -15.2008602097
 H         7.2735987480       -1.3120387792      -15.2734838375
 H         6.2804970917       -0.9608966400      -16.8371591037
 H         5.8203530403       -0.1165741108      -13.1305369296
 H         6.3495325426        1.5614493191      -13.1502756232
 H         7.4565063005        0.0411285362      -13.2000774194
 H         6.8760630857       -0.4516461353      -21.1117736388
 H         6.7538293781        0.8403839743      -22.2906508749
 H         6.1328135869        1.0458019275      -20.4619473643
 H         9.7376829929       -0.0008682004      -21.9038893643
 H        10.1815886135        1.6725465875      -21.8416524067
 H         8.9601361604        1.2673566103      -22.9511091349
 H         6.7899469264        7.5770018077      -17.7263409674
 H         6.6508656897        6.0767631744      -18.6996249978
 H         7.5566154201        7.5366852657      -19.2112515665
 H        10.7053392890        7.0740821720      -17.3608513493
 H         9.3199257156        8.2321218716      -17.4067921739
 H        10.0346390753        7.4642015054      -18.9510938525
 H         6.8550030661        9.3806210063      -10.8861083364
 H         5.1921100452        8.8556245223      -11.1962398958
 H         6.2148100961        9.7016548378      -12.4125155897
 H         7.2249542406        5.7456197376      -10.7136719143
 H         6.7524310121        7.2939078291       -9.9203396116
 H         8.2274713740        7.2365594212      -10.8207800422
 H         2.9166729830        3.4250081951       -8.1672009870
 H         2.4031814729        4.5441557045       -9.4883913058
 H         4.0398216527        4.6499951277       -8.7493493134
 H         5.5217437168        3.3174017621       -8.9134098251
 H         5.9774923079        2.4521054528      -10.3751084091
 H         4.9462376895        1.5959044686       -9.2014023600
 H         0.5936279210       -2.3328824223      -10.3706121358
 H         1.7570679328       -3.4499832999      -10.2983976234
 H         0.2862545569       -4.0016999045      -10.7958103044
 H         1.0923950573       -4.2645908030      -13.7994289198
 H         2.5013907754       -4.3566112439      -12.9095654067
 H         2.4392075810       -3.2182399835      -14.1666435650
 H        -2.8850697769       -4.3328762507      -14.3514734930
 H        -4.1889346271       -5.5272017582      -13.9635148167
 H        -3.3861535799       -4.8459288585      -12.6531631424
 H        -4.3485219980       -2.6432952289      -15.7752719987
 H        -5.9007281933       -2.0965201990      -14.9712461753
 H        -5.6754370614       -3.8616065130      -15.5226153554
 H        -9.0012380481       -3.4767257540       -9.5241837439
 H        -9.7521490080       -3.7530635288       -7.9742881968
 H        -9.4082966949       -5.0624067149       -8.9639979205
 H        -8.4069287119       -3.5276038524       -6.1509624118
 H        -7.1714131891       -2.6240385585       -7.0171830815
 H        -6.6344894856       -4.0102832769       -6.1326990512
 H        -7.0983516851      -11.3325510201       -3.3241233855
 H        -6.3403141829       -9.9075361370       -2.8970115007
 H        -5.8864153043      -10.6880262153       -4.4323389814
 H        -8.5041362577      -11.8113084649       -5.3740329176
 H        -7.3429167926      -10.9798603949       -6.5054951685
 H        -8.9097405619      -10.4386230341       -6.4561578545
 H       -12.8318665870      -10.2316927580       -1.0691235713
 H       -13.8738139577      -11.4315660738       -1.7187949929
 H       -14.5730070388      -10.2066224019       -0.6498667819
 H       -15.3964387258       -9.8136219795       -4.4690861163
 H       -15.7960618371      -10.9854640706       -3.0895190214
 H       -14.1899530330      -11.2037601996       -3.9133355344
 H       -15.7892883057       -3.0708306609       -3.0353808960
 H       -14.5202666451       -2.7752471080       -1.6548515828
 H       -15.9654397153       -1.8062413249       -1.9100189663
 H       -16.1681605886       -4.1229184741        1.0827484979
 H       -16.5358819594       -2.4465670138        0.6289456964
 H       -14.9903624822       -2.9877642162        0.2563168414
 H       -22.2132656947       -3.9460503328       -4.1105654401
 H       -22.7251474444       -4.5541628977       -2.4940001695
 H       -23.1843381247       -5.4758950215       -4.0361238174
 H       -22.2013537097       -7.2597749864       -2.3197193681
 H       -20.6407086204       -7.7753268665       -3.1013699824
 H       -22.0018836537       -7.3445082687       -4.0625364019
 Na      -18.0692346734       -6.9939855247       -2.1528082732
 Na        6.2330338088        4.1744824059      -14.2172537702
