232

 C        -6.3348911573        6.7619367225      -22.7162869798
 C        -6.0766694667        5.2436912432      -22.4016174609
 O        -6.5789351302        4.7646927475      -21.3910635107
 C        -5.2368291434        4.2972975547      -23.2386264713
 C        -5.9893861681        2.9876012618      -23.4846228639
 O        -6.2926613751        2.3336806262      -22.5278615361
 C        -6.3326833686        2.3678752463      -24.8752572393
 C        -7.2845295592        1.2448006885      -24.7172603888
 C        -8.8056776075        1.7239869529      -24.8160387443
 O        -8.7870834916        2.8789798094      -25.1288834253
 C       -10.1159524698        0.8719158085      -24.7362822636
 C       -10.3286408433       -0.0466724414      -23.5662667607
 O       -10.6431035328       -1.2076697638      -23.7670008765
 C       -10.3376870859        0.6734756131      -22.1501179773
 C        -9.6817436595       -0.1930503090      -21.0860022598
 C        -8.6198262771        0.4719490655      -20.2123374652
 O        -8.4173468784        1.6913795897      -20.3687070369
 C        -7.8175544078       -0.2671142014      -19.0889611768
 C        -6.4544559638        0.4267816707      -18.8245110112
 O        -5.7433433772        0.8187378893      -19.7511260863
 C        -5.8306499420        0.4377143628      -17.4927376025
 C        -4.3024759506        0.9275619276      -17.4928740373
 C        -4.2506818469        2.4793528401      -17.4155130075
 O        -4.7881426219        3.1392012793      -18.2569323328
 C        -3.6030042069        3.0543616019      -16.2104238226
 C        -4.2667186956        2.3530868131      -14.9626179167
 O        -5.4462558785        2.4090428203      -14.8366207182
 C        -3.4832865450        1.4378464041      -14.0749565008
 C        -4.1976790430        0.4870199922      -13.0376318789
 C        -3.0403551227       -0.5389431870      -12.4760760192
 O        -2.1468038047       -0.9576147725      -13.2394781972
 C        -3.4209981526       -1.0537154974      -11.0595184940
 C        -2.2261333298       -1.9760062951      -10.2508146949
 O        -2.1274005009       -1.7242930649       -9.0853047815
 C        -1.4399011114       -2.8966768869      -11.1423442144
 C        -0.3739738930       -3.7154529401      -10.3910004133
 C        -1.0112947026       -4.8640434699       -9.5363877667
 O        -2.1790018601       -4.8905989782       -9.3404751135
 C         0.0195139350       -5.9386491387       -8.7776624102
 C         1.4066810792       -5.2022485912       -8.4118740027
 O         1.4526204624       -4.0436988032       -8.0019960512
 C         2.6732482226       -5.9355676851       -8.4920688701
 C         3.8594830506       -5.4134774330       -7.5643921889
 C         3.4957128659       -5.4115624904       -6.0556998466
 O         2.3260103324       -5.7065887686       -5.7663886825
 C         4.5618158810       -5.1317744858       -4.8788548600
 C         4.1510792559       -3.7473161812       -4.2055296907
 O         4.6677918615       -2.7238854034       -4.5636458061
 C         2.9319024657       -3.7987334225       -3.2442426349
 C         1.9298408027       -2.6225748740       -3.3447828519
 C         1.5653062800       -2.1617714198       -4.7848837378
 O         0.9841698334       -2.9126700237       -5.5730280287
 C         2.2021879793       -0.8649870225       -5.4090051335
 C         0.9735221246       -0.0673876513       -6.0844159559
 O         0.1006324781       -0.7368324995       -6.6641723554
 C         0.8295436788        1.4310361148       -6.0019989301
 C        -0.5488948986        1.8069500160       -5.5340681197
 C        -1.0952514481        1.0395103808       -4.4020899275
 O        -0.3856244223        0.3194003649       -3.7542375936
 C        -2.5938785682        1.1929337277       -4.1238459802
 C        -3.3920093509        0.2714862248       -5.4175573391
 O        -4.4898855977        0.5915514431       -5.7573448939
 C        -2.8276666398       -1.1099887852       -5.7739425853
 C        -3.7346936597       -2.3273437589       -5.4902909240
 C        -3.5170587094       -3.5829010170       -6.2813677455
 O        -2.3988021219       -3.8824225733       -6.6431249160
 C        -4.7500862544       -4.5766335051       -6.1376865326
 C        -5.0148829611       -5.0533460009       -4.6000103479
 O        -5.9238880714       -4.7016379550       -3.9110363180
 C        -4.0978221450       -6.2003114221       -4.1188470811
 C        -3.7535909639       -6.2179215959       -2.6754325522
 C        -3.2262183253       -4.7749152728       -2.2290674418
 O        -2.9772559093       -3.9501952543       -3.0821851494
 C        -2.6486932011       -4.6104630179       -0.7189130958
 C        -3.5894274498       -5.3813886447        0.3348767676
 O        -4.4427113360       -6.0760956263       -0.0738229234
 C        -3.2174855977       -5.2166804562        1.8226740959
 C        -4.1435196466       -6.1949703075        2.7654834059
 C        -4.7949575269       -5.3339141149        3.8764890865
 O        -4.8053243142       -4.0966241448        3.7906639864
 C        -5.4929455658       -5.9043510278        5.1393032494
 C        -4.5559830189       -5.5073207375        6.3402299107
 O        -5.0408268135       -4.8767486729        7.2045223604
 C        -3.0206245076       -5.8272645861        6.2405488220
 C        -6.8860182137       -5.3288555192        5.3857150797
 C        -5.6508980357       -7.4804815133        5.1324633981
 C        -1.1937667315       -5.2483960823       -0.7059472717
 C        -2.5472168336       -3.0902412870       -0.4611785484
 C        -5.9974092875       -4.0225225099       -6.7860225403
 C        -4.4141094318       -5.8266320283       -6.9785930857
 C        -2.9498179494        0.4754080191       -2.6804211267
 C        -3.1525665736        2.5955218949       -4.0299962643
 C         2.9578676931       -0.0097438835       -4.3942371644
 C         3.0642006362       -1.3574719520       -6.6315031324
 C         4.4888102220       -6.2748431174       -3.8908580365
 C         5.9663212877       -4.8566610636       -5.4023753611
 C        -0.6518434489       -6.4664203248       -7.5945716895
 C         0.0994619665       -7.1612343656       -9.8279762978
 C        -3.8736913665        0.0623607844      -10.0474127071
 C        -4.5088451561       -2.1194943938      -11.3430127458
 C        -2.1120059804        2.7560835348      -16.3889405762
 C        -3.9359644476        4.5374743802      -16.0667682071
 C        -8.8053455161       -0.3843507935      -17.9229316116
 C        -7.4212104435       -1.6412692835      -19.5364490342
 C       -11.2495378037        1.9473382108      -24.7463438545
 C       -10.0988306802        0.0300501071      -26.0091159064
 C        -4.7692128467        4.8660779498      -24.5663074981
 C        -3.9442415921        3.8294811088      -22.4691134756
 H        -5.3847437459        7.1804059906      -22.5291141897
 H        -7.0573777894        7.1347132592      -22.0580432420
 H        -6.6621152109        6.8183596104      -23.7736639308
 H        -5.2837893317        1.9937640228      -25.1465479934
 H        -6.6194681115        3.1444579053      -25.6020362615
 H        -7.2239827170        0.7502771460      -23.7059469436
 H        -7.2076350526        0.4569426904      -25.5402527076
 H       -11.3328544027        0.9131278361      -21.7649669652
 H        -9.8330068328        1.6500773027      -22.1059243999
 H        -9.1572318868       -0.9286369134      -21.6840117591
 H       -10.4621726652       -0.6347488666      -20.4131468511
 H        -5.8866777460       -0.6278262780      -17.1493230259
 H        -6.4279860852        1.1221717997      -16.7474731207
 H        -3.8449193298        0.6031795225      -18.4372424891
 H        -3.7064620972        0.6168174498      -16.6561992156
 H        -2.8244254510        2.0953179203      -13.4370233865
 H        -2.7226926436        0.9199899038      -14.6523123140
 H        -4.9882689570       -0.0479213481      -13.5279814505
 H        -4.7081955113        1.0548681964      -12.2125693996
 H        -1.0419998867       -2.2647665644      -11.9192419937
 H        -2.1779741977       -3.5904816624      -11.5812749158
 H         0.2980907160       -3.0455943462       -9.7222169015
 H         0.2447455470       -4.1824665970      -11.1255872380
 H         3.0417018630       -5.7819920600       -9.6029053491
 H         2.6461712924       -7.0183421717       -8.3876920707
 H         4.2334722257       -4.3889455866       -7.8715571352
 H         4.6524953004       -6.1516789885       -7.7367292680
 H         3.3740022668       -3.8806469350       -2.2176533821
 H         2.4315741315       -4.7650060300       -3.4103834886
 H         2.1154630986       -1.7777108055       -2.6922512216
 H         0.9734720444       -3.0057482216       -2.8404725335
 H         0.9616777493        1.7377345903       -6.9644544839
 H         1.5925232682        1.7935214436       -5.2281889239
 H        -1.2898813753        1.8551179986       -6.4615254128
 H        -0.5415480945        2.8606558047       -5.2149155173
 H        -1.8473120036       -1.3632163186       -5.2598281006
 H        -2.4375461651       -1.0673630225       -6.8123455320
 H        -4.7329447942       -1.9734353644       -5.4638205818
 H        -3.5950621446       -2.7181294102       -4.4666331797
 H        -3.1738891900       -6.0823309863       -4.6709274209
 H        -4.3988859582       -7.2370003868       -4.4446569235
 H        -3.0424669525       -6.9495113703       -2.4274782730
 H        -4.5826639628       -6.5644605842       -2.1052561832
 H        -3.5492474596       -4.1585907447        1.9457969831
 H        -2.2176952501       -5.3572986942        2.1964749347
 H        -3.5366649661       -7.0381560139        3.2485656061
 H        -4.9059376002       -6.6400320688        2.1408587053
 H        -2.6695212163       -5.2576938268        5.3506057941
 H        -2.9330926083       -6.8983762704        5.9683654227
 H        -2.3718900920       -5.7174483917        7.1389257625
 H        -7.4368977177       -5.8612173131        6.1752192453
 H        -7.5278968137       -5.4474502928        4.5437315441
 H        -6.8193978604       -4.3078634728        5.7147753133
 H        -4.7484733604       -8.0187057635        4.8414324473
 H        -6.4364471055       -7.8722002195        4.4621126687
 H        -5.7737048126       -7.7466173098        6.2482302979
 H        -0.8322609025       -4.8213572986       -1.6420361406
 H        -1.3634920181       -6.2953054684       -0.6534627398
 H        -0.6517070628       -4.8132741663        0.1182946763
 H        -1.8536584789       -2.5175751440       -1.1779788977
 H        -2.1816191330       -2.8134972833        0.5729358203
 H        -3.5101482313       -2.6598639190       -0.6638083479
 H        -5.7233023661       -3.4307982862       -7.6908033879
 H        -6.4719157976       -3.3062247781       -6.0390755019
 H        -6.7696547840       -4.6716119636       -7.0407623662
 H        -5.2561585042       -6.5255416088       -6.7201575291
 H        -3.5280949863       -6.3531581079       -6.6422827441
 H        -4.3459564386       -5.6597882290       -8.0373331997
 H        -3.4195347803        1.2570087335       -2.0849410933
 H        -1.9332686461        0.3775106300       -2.2566181504
 H        -3.5038231827       -0.4793054364       -2.7802135921
 H        -2.8805071403        3.1445777101       -4.9988716035
 H        -2.8609168184        3.2307717890       -3.2155484132
 H        -4.2432391058        2.6690156157       -3.9474800086
 H         3.4082053971        0.9050806697       -4.8111188971
 H         3.8378696362       -0.4617632961       -4.0164612002
 H         2.4674468966        0.2718258978       -3.4692692004
 H         3.9571681321       -1.9015751291       -6.4350066087
 H         3.2952657434       -0.5759097661       -7.3857880199
 H         2.2975196648       -2.0202821340       -7.1315751087
 H         4.9241487497       -7.2008956936       -4.3671766930
 H         3.4481444254       -6.6371091201       -3.6878826208
 H         4.9413774753       -6.0792005964       -2.9257530768
 H         5.8632690948       -4.0732303933       -6.1498159073
 H         6.2989554774       -5.7088362410       -5.9411313143
 H         6.5818603446       -4.5003612677       -4.5990284493
 H        -0.9445674021       -5.6707647793       -6.9527396907
 H        -0.0188974416       -6.9687126372       -6.8573262284
 H        -1.5582467057       -7.1775762028       -7.7264571889
 H         0.6788160632       -8.0470992877       -9.5324443731
 H         0.3448271345       -6.8242451026      -10.8536071841
 H        -0.8615323186       -7.6794592056       -9.8014750496
 H        -3.8167630522        1.0870125369      -10.5190343727
 H        -3.1273212533       -0.0062615419       -9.2943368688
 H        -4.8252641526       -0.0916244446       -9.5547280578
 H        -4.8640416895       -2.5831833722      -10.4258316484
 H        -4.1889614656       -2.9250283872      -12.0345166668
 H        -5.4325983631       -1.6753224900      -11.7573778794
 H        -1.8634240915        3.0662370642      -17.4155941647
 H        -1.7889983189        1.7146285968      -16.2364503310
 H        -1.4744104968        3.4636929307      -15.8138075357
 H        -3.4168496930        4.9697933349      -15.2417882206
 H        -5.0402339502        4.7229487956      -15.7794443296
 H        -3.5572988114        5.1229856878      -16.9666560254
 H        -8.5371490896       -1.2779379889      -17.3515316098
 H        -9.7518158968       -0.5570696928      -18.2436906979
 H        -8.8789374532        0.5914363234      -17.2828416354
 H        -6.8490278446       -2.1572241695      -18.8527271488
 H        -7.0085834660       -1.6252398730      -20.4798632136
 H        -8.3849663258       -2.1969461977      -19.7292023244
 H       -11.0819709239        2.3238246708      -23.7415141573
 H       -12.2162042686        1.5753849135      -24.9242091078
 H       -11.0662813413        2.7208424910      -25.4348071886
 H        -9.6814363730        0.5258403603      -26.8515523347
 H       -11.1027177699       -0.1136246083      -26.3097292667
 H        -9.6035511775       -0.9056312632      -25.9031456155
 H        -4.0519357495        4.2171247704      -25.0183539023
 H        -4.2505438634        5.7989216281      -24.4639661279
 H        -5.6039043089        5.0336992306      -25.3027811334
 H        -4.0729385314        3.3950421533      -21.4857972683
 H        -3.5725383767        4.8567319948      -22.2764710451
 H        -3.3013696488        3.3666857416      -23.1383767488
 Na       -6.1205834165        2.9110895431      -20.2790953893
 Na       -0.5261985136       -2.8138313687       -7.2910466552
