232

 C        -6.0952609848        6.6294030764      -22.7222254343
 C        -6.0251126753        5.1634515353      -22.3460615554
 O        -6.4581243966        4.8632014116      -21.2692502490
 C        -5.0867236601        4.2376530155      -23.3766347581
 C        -5.8869759182        2.8723410641      -23.5032445434
 O        -6.2915605907        2.3786732493      -22.4821601578
 C        -6.3172041018        2.1951867082      -24.8451964058
 C        -7.3029167606        1.1187750034      -24.7351607036
 C        -8.7928726431        1.7806050905      -24.7987245651
 O        -8.9663768536        2.9741052939      -25.0527458420
 C       -10.1313377128        0.9305517318      -24.7255215463
 C       -10.4219026039        0.0051519713      -23.5405721885
 O       -10.7337221141       -1.1697472118      -23.5945919510
 C       -10.3389380747        0.6124329118      -22.1845359597
 C        -9.6043939206       -0.2635116593      -21.1348893335
 C        -8.6275133410        0.5335188503      -20.2338452945
 O        -8.3725968383        1.7112334899      -20.4112993043
 C        -7.8776554278       -0.3542355827      -19.1007236920
 C        -6.4489021066        0.4439640080      -18.8295573419
 O        -5.8582345045        0.8170790374      -19.7927634044
 C        -5.8311304747        0.3828619314      -17.4019198572
 C        -4.3841748910        0.9197925619      -17.5744592539
 C        -4.4527429889        2.4802678333      -17.4337886194
 O        -4.9929616513        3.2229436373      -18.1496649726
 C        -3.6710820069        3.0268737262      -16.1690915947
 C        -4.3602821374        2.2939478469      -14.9485161895
 O        -5.5948041966        2.3986411831      -14.7489258168
 C        -3.2898423311        1.4392445463      -14.0921758758
 C        -4.0304237793        0.4865415161      -13.1361016275
 C        -3.0983398981       -0.5187328026      -12.4528627135
 O        -2.2090342704       -0.9514131331      -13.1552799348
 C        -3.4363323120       -1.0803307427      -10.9673727491
 C        -2.1460415402       -1.8133369003      -10.2654425369
 O        -1.9476639332       -1.7789326696       -9.0707666052
 C        -1.3998943350       -2.8461775235      -11.1766905079
 C        -0.2737350361       -3.6861967718      -10.4584889485
 C        -0.8758533251       -4.7394421535       -9.5698876531
 O        -2.0865964240       -4.9042456840       -9.4597455126
 C        -0.0354074092       -5.8512004105       -8.8718375721
 C         1.3853186895       -5.3064371310       -8.4691231281
 O         1.2889600669       -4.1474658985       -8.0789166701
 C         2.6653724480       -6.1964492497       -8.3698605932
 C         3.7914588582       -5.4532060180       -7.6192529931
 C         3.3754696834       -5.3633958839       -6.1280271140
 O         2.2371018542       -5.5194460611       -5.7530500118
 C         4.4920565620       -5.0794946834       -5.0237134451
 C         4.0596235110       -3.6701553798       -4.3634946389
 O         4.6161354130       -2.6500674375       -4.7048620272
 C         2.8409828608       -3.7037496287       -3.3030890612
 C         1.9400419812       -2.5427270561       -3.2506153186
 C         1.6868971321       -2.1792485089       -4.7541824454
 O         0.9289202056       -2.9480799880       -5.2937148045
 C         2.2378746685       -0.8941322099       -5.4243166631
 C         0.9248006041       -0.1251754421       -5.9664783100
 O         0.1712825938       -0.7633793399       -6.6308662832
 C         0.9347388996        1.3965334847       -5.9399546202
 C        -0.4924673104        1.9711274286       -5.6052990269
 C        -1.0777990046        1.1354683367       -4.4175358912
 O        -0.4015357131        0.3487213655       -3.8061707673
 C        -2.6822329629        1.1416879068       -4.1228884987
 C        -3.4307688739        0.2106484766       -5.1471434571
 O        -4.5113166536        0.4764025838       -5.5955616729
 C        -2.7335805512       -1.0046898139       -5.7266061151
 C        -3.7922436745       -2.0536703728       -5.5180109403
 C        -3.5830316945       -3.4963524981       -6.0738906289
 O        -2.5396009039       -3.8387901233       -6.6327436725
 C        -4.7996183537       -4.5076512870       -6.1477135372
 C        -4.9567618367       -5.0789672976       -4.7001963078
 O        -5.9321670320       -4.6862048504       -4.0775890455
 C        -3.9930784095       -6.2571008777       -4.1013267321
 C        -3.7191938068       -6.1290058107       -2.6153764415
 C        -3.0679151735       -4.8746302370       -2.1478842177
 O        -2.9089720747       -3.9567811642       -2.9436593285
 C        -2.5926556309       -4.6205225347       -0.7264095612
 C        -3.5106436392       -5.4240778942        0.4178884067
 O        -4.4084189665       -6.1264501890       -0.0348444412
 C        -3.2656357875       -5.2635045082        1.8462850597
 C        -4.0332281242       -6.2067032055        2.7757223700
 C        -4.8273464945       -5.3253333785        3.8203291035
 O        -4.6447177234       -4.1555149805        3.7910710592
 C        -5.5385316566       -5.9803552057        5.1129013893
 C        -4.5981674700       -5.5336475824        6.2599433277
 O        -5.0216699762       -5.0914047004        7.3205259148
 C        -3.1394418851       -5.9255941606        6.2234558579
 C        -6.8968520327       -5.3510848125        5.4807506486
 C        -5.5156988220       -7.5049254907        4.9662118350
 C        -1.1282320320       -5.1609312623       -0.6796360318
 C        -2.5632146405       -3.1126528195       -0.4595583307
 C        -6.0528997154       -3.8591678365       -6.8005371014
 C        -4.4453709868       -5.7938194132       -7.1041764377
 C        -2.7825235008        0.4639839156       -2.6825990220
 C        -3.1792445613        2.5590297529       -3.9231609231
 C         2.8500614875        0.0221601395       -4.3952056713
 C         3.0554947090       -1.1518247798       -6.6844533861
 C         4.5228241654       -6.2881044418       -4.0731539089
 C         5.9624550838       -4.8671254358       -5.5920118106
 C        -0.7822837274       -6.3864648131       -7.6421131271
 C         0.1600757900       -7.0299727001       -9.9072489404
 C        -3.9989691992        0.0045701697      -10.0780012561
 C        -4.4605231732       -2.1469437100      -11.3347390989
 C        -2.1582989932        2.7759023820      -16.3814267580
 C        -3.9236085252        4.5735260491      -16.1725730879
 C        -8.8006807224       -0.5880175075      -17.8659669993
 C        -7.3690944400       -1.8238209441      -19.5196003719
 C       -11.4594121296        1.8204653207      -24.6802557063
 C       -10.1367287694        0.0707429910      -26.1114525735
 C        -4.7075536987        4.9718257824      -24.7415416948
 C        -3.8503603364        3.8711876569      -22.4567436161
 H        -5.0568423215        6.9495538760      -22.9349280583
 H        -6.5609140535        7.1457330514      -21.8426614306
 H        -6.7042906045        6.6005075801      -23.5440977249
 H        -5.3349945106        1.9464389386      -25.1815991471
 H        -6.6988475336        2.9479599507      -25.4910757988
 H        -7.3069527699        0.6201518655      -23.7604928737
 H        -7.3554785143        0.3279979406      -25.5721011763
 H       -11.3273667654        0.8839644229      -21.7497953697
 H        -9.7562287092        1.5453432713      -22.1481634347
 H        -9.0909829785       -1.0398040698      -21.7446061689
 H       -10.2787676104       -0.6625611684      -20.3998766537
 H        -5.8900686216       -0.6523986609      -16.9872439911
 H        -6.3744227964        1.0748417832      -16.7587121233
 H        -4.0489586126        0.5840746113      -18.5559868909
 H        -3.5932013105        0.6897330593      -16.7780913670
 H        -2.4988095626        2.0216624188      -13.6059377876
 H        -2.7568653771        0.8521796055      -14.8019570990
 H        -4.7077015216        0.0005791562      -13.8464082964
 H        -4.6347606474        1.0141019739      -12.4425214713
 H        -0.9026042500       -2.1696607493      -11.8368249446
 H        -2.0854315227       -3.4846463916      -11.7494343058
 H         0.4322387307       -3.0965885380       -9.9825022302
 H         0.1737194085       -4.2597650424      -11.2229947127
 H         3.0985829220       -6.4325327682       -9.4794258770
 H         2.4988079029       -7.1752339027       -7.9390257481
 H         3.8586430258       -4.3988718118       -8.0208436232
 H         4.7587405339       -5.9508955999       -7.7813910499
 H         3.3770265329       -3.8542501539       -2.3448778917
 H         2.3061355676       -4.6460113053       -3.4518792045
 H         2.2214219382       -1.7355971299       -2.5825326258
 H         0.9777442493       -2.8732362186       -2.8446296929
 H         1.3566171210        1.6284872860       -6.9306124206
 H         1.5852124884        1.6518206498       -5.1340919792
 H        -1.2036874451        1.8442867770       -6.4398002634
 H        -0.5115457630        3.0812058167       -5.4582556332
 H        -1.7727358527       -1.4462044839       -5.3286971716
 H        -2.4503800329       -0.8175092832       -6.7939798755
 H        -4.6331882539       -1.6275631209       -6.0254314786
 H        -4.1491906445       -2.0330982754       -4.4806734017
 H        -2.9819729701       -6.2954945526       -4.6523063365
 H        -4.3956399462       -7.2305419240       -4.3778592634
 H        -3.2120385106       -6.9798999792       -2.1889184737
 H        -4.6026357688       -6.1314147929       -2.0519020997
 H        -3.5510307973       -4.1768344396        1.9829205877
 H        -2.2056845403       -5.4389476924        2.1694882954
 H        -3.3110154810       -6.7953056257        3.3951987124
 H        -4.6318959687       -6.8960250991        2.1640636862
 H        -2.6164395394       -5.5546335633        5.3080992090
 H        -3.0885605704       -7.0327433572        6.2874467256
 H        -2.6042267550       -5.5822375486        7.0685829708
 H        -7.4306570405       -5.8989782924        6.2262675052
 H        -7.6274369551       -5.2042372557        4.6710476976
 H        -6.6805034314       -4.4471982695        5.9759539318
 H        -4.4626214390       -7.8458120550        5.0936073845
 H        -5.9118478097       -7.9839617386        4.0538351280
 H        -5.9544226709       -7.8678449959        5.8980668620
 H        -0.6556998800       -4.5455934717       -1.5164739031
 H        -1.2516201434       -6.2575512044       -0.8510460958
 H        -0.7892411111       -4.8850862023        0.2545495493
 H        -1.9511169914       -2.5060880470       -1.1746516999
 H        -2.0659219085       -2.9783684789        0.5085326197
 H        -3.5790339467       -2.6131844202       -0.4837934341
 H        -5.7651979273       -3.3750117032       -7.7477068904
 H        -6.5626789106       -3.1292594120       -6.1780010538
 H        -6.8399633448       -4.5833680509       -7.0705273771
 H        -5.1260010688       -6.5167899882       -6.7031605018
 H        -3.4771040439       -6.2466123132       -6.8533611810
 H        -4.5411222360       -5.7132516944       -8.1258013409
 H        -3.4626776053        0.9866109117       -1.9650461907
 H        -1.8088196888        0.5293187257       -2.3218399603
 H        -2.9552734133       -0.5954068661       -2.9045365156
 H        -3.0101140476        3.1529980055       -4.8278280958
 H        -2.6166244035        3.1462227487       -3.0859446616
 H        -4.1698869239        2.7194523242       -3.5728469302
 H         3.2416958220        0.9141628500       -4.8183087526
 H         3.7420744888       -0.3393549544       -3.8856618765
 H         2.2405057138        0.3666503274       -3.4992971314
 H         4.0104117118       -1.5695180226       -6.4551707522
 H         3.2412979698       -0.2557381778       -7.3330284791
 H         2.4655177525       -1.8132249006       -7.3121037996
 H         5.0842300414       -7.1511580946       -4.5252102176
 H         3.5630532757       -6.6977319338       -3.8644289653
 H         4.9502090589       -6.0137499570       -3.0317306794
 H         5.9801375047       -3.8993425044       -6.1520860223
 H         6.1186707524       -5.5866737179       -6.2891530696
 H         6.6580442170       -4.7781680555       -4.7261539068
 H        -0.8405533483       -5.7672241138       -6.6914227466
 H        -0.2651183488       -7.2446277328       -7.2193136838
 H        -1.7947968923       -6.7905630785       -7.8703310943
 H         0.9561251006       -7.6672385844       -9.6891838147
 H         0.2362091854       -6.7093556590      -10.9239613210
 H        -0.6839511534       -7.8177634124       -9.7370401684
 H        -3.5557542284        0.9449536407      -10.4541642958
 H        -3.7182993042       -0.1986624338       -9.0186975604
 H        -5.0425918716        0.0454879650      -10.0968725886
 H        -4.7212130604       -2.8531433374      -10.5411958758
 H        -4.3427870471       -2.6935630141      -12.2758515164
 H        -5.3308665460       -1.6062648615      -11.4415057199
 H        -1.8786452461        2.8946271777      -17.4459936531
 H        -1.7806653314        1.8146212206      -16.0446899347
 H        -1.5308714975        3.6142953440      -15.8800464308
 H        -3.6281359221        5.1312120464      -15.2744205431
 H        -4.9941632705        4.7913445797      -16.2676324916
 H        -3.3406469828        4.9935373885      -16.9624898009
 H        -8.5971001609       -1.5212899775      -17.2655411578
 H        -9.8433354114       -0.7502338331      -18.2082121281
 H        -8.7985280086        0.3120473000      -17.2987020211
 H        -6.7512785728       -2.1178074570      -18.7011213787
 H        -6.7839019299       -1.8805989565      -20.3787304797
 H        -8.1658909725       -2.5371396410      -19.6355755553
 H       -11.4772545406        2.2718193623      -23.7414306092
 H       -12.3255275527        1.1328433131      -24.7257991732
 H       -11.5717955864        2.5387089626      -25.5258289620
 H        -9.7869427369        0.5370110216      -26.9675457602
 H       -11.1721348320       -0.1873930610      -26.3499194062
 H        -9.5556708058       -0.8777194342      -25.9875398592
 H        -3.8433134872        4.4396156848      -25.1588905028
 H        -4.2497134737        5.9613955571      -24.6260948348
 H        -5.4591721237        4.9977147486      -25.4700475447
 H        -4.1226842171        3.6992559025      -21.4586888618
 H        -3.2852276033        4.7621771721      -22.3916353014
 H        -3.2512969931        3.0913799780      -22.9699546390
 Na       -6.0396687781        2.9561424135      -20.1997932784
 Na       -0.5675146009       -2.8519889456       -7.3260728299
