232

 C        -5.9207082895        6.7224857183      -22.8643056649
 C        -5.8045356537        5.2545124211      -22.3884668131
 O        -6.2330500921        4.8541497035      -21.3193217592
 C        -5.0196436609        4.2100468054      -23.3291457436
 C        -5.9159284447        2.8188433926      -23.4536682638
 O        -6.2986433128        2.2274207615      -22.4323075725
 C        -6.2703468179        2.1545475603      -24.8578702291
 C        -7.6120532949        1.1700168341      -24.7031530766
 C        -8.9695981357        1.8460296925      -24.8082659516
 O        -8.9972195445        3.0430447131      -24.9003769390
 C       -10.2771923158        0.8915414719      -24.7564944870
 C       -10.3413927065       -0.0459122978      -23.4508578527
 O       -10.7653596757       -1.1719918815      -23.5504494210
 C       -10.2371835693        0.6926692818      -22.0879895056
 C        -9.5245120163       -0.3028594410      -21.0820726952
 C        -8.5034847316        0.4321228105      -20.2196376550
 O        -8.3063844899        1.5927296159      -20.3732701761
 C        -7.8639340088       -0.4384647576      -19.0929752908
 C        -6.5196425245        0.2299965864      -18.7813764445
 O        -5.9908279590        0.6836359272      -19.7884634605
 C        -5.8871608388        0.3388738949      -17.4686359617
 C        -4.5476111699        0.9864229652      -17.6308977861
 C        -4.5188315128        2.4809393126      -17.3891413338
 O        -5.2232846640        3.2313899431      -18.1171532647
 C        -3.7032042186        3.0970353628      -16.2086922800
 C        -4.2707753224        2.3052054573      -14.9557871459
 O        -5.4351298787        2.3004629200      -14.6116166307
 C        -3.3987019534        1.4239083790      -14.0795681133
 C        -4.0536923386        0.5174681587      -13.0564509809
 C        -3.0451832710       -0.4480891953      -12.4363344143
 O        -2.1468089489       -0.9941940791      -13.0218325089
 C        -3.3888880963       -1.0946251237      -10.9755891068
 C        -2.1290552564       -1.8400758246      -10.3610250985
 O        -1.8473989874       -1.6733864943       -9.1733244622
 C        -1.2665444984       -2.7830004509      -11.2599160260
 C        -0.2010056948       -3.6565591957      -10.5632619582
 C        -0.9149631266       -4.7678240848       -9.6718680688
 O        -2.1285286474       -4.8236782476       -9.6042528998
 C        -0.0269645265       -5.9468178198       -8.9788037851
 C         1.2950069146       -5.3550599745       -8.3806283349
 O         1.4283364719       -4.1711666459       -8.1183730997
 C         2.4633251221       -6.2324761629       -8.2896038190
 C         3.6210252342       -5.4812302202       -7.6284619644
 C         3.3162501196       -5.2884747242       -6.1796063947
 O         2.2181144965       -5.3878919790       -5.7347067525
 C         4.4275370990       -4.9721209761       -5.1844887638
 C         3.9962718231       -3.7294370946       -4.4348897843
 O         4.4531280181       -2.6244994021       -4.7175856934
 C         2.9465928553       -3.7977290054       -3.3257898081
 C         2.1379812966       -2.5032568166       -3.2406847302
 C         1.5492768326       -2.1775100301       -4.6588685874
 O         0.8513382206       -2.9810279621       -5.2119074830
 C         2.1290819556       -0.8456563571       -5.3820631749
 C         0.9390914294       -0.1070777860       -6.0184300372
 O         0.0603813710       -0.6094809190       -6.6870747136
 C         0.9020168329        1.4849772956       -5.8795999486
 C        -0.6115920120        1.9603019390       -5.6532002061
 C        -1.1524213272        1.1296347513       -4.5062371324
 O        -0.2826261201        0.4250226837       -3.9504912396
 C        -2.5171524338        1.1347786966       -3.9853835981
 C        -3.3617973744        0.3076877432       -5.0542871159
 O        -4.5333163564        0.6316773469       -5.2859618045
 C        -2.7753391023       -1.0332968513       -5.5360581154
 C        -3.9836759923       -2.0803640118       -5.6242389904
 C        -3.6665186011       -3.5098353052       -6.1995702805
 O        -2.5211541392       -3.7786681087       -6.5825490763
 C        -4.7802053340       -4.5404966871       -6.1573734349
 C        -4.9913209093       -5.1372048667       -4.7310705641
 O        -5.9153042797       -4.7136448630       -4.0808843242
 C        -3.9741855044       -6.0785815160       -4.2433161957
 C        -3.8673503356       -6.0543450557       -2.7015779991
 C        -3.0413398243       -4.8318945369       -2.1890181206
 O        -2.8408066138       -3.9047236014       -2.9600483557
 C        -2.5283787230       -4.6867010404       -0.6501281728
 C        -3.4622901383       -5.4726901149        0.3961492860
 O        -4.4114896839       -6.2120711521        0.0851739560
 C        -3.1549400757       -5.2436120011        1.8705829726
 C        -3.9400720343       -6.1346976995        2.8105733533
 C        -4.7427562913       -5.2622621122        3.8675735245
 O        -4.6568862449       -4.0653601483        3.8103272354
 C        -5.4378478097       -6.0291342838        5.0876507972
 C        -4.5483592220       -5.7524820808        6.4386838945
 O        -5.0662184088       -5.2371211530        7.4162220098
 C        -3.0521056182       -6.0832336424        6.2192386503
 C        -6.9015274839       -5.4443674949        5.3018213836
 C        -5.5139142641       -7.5371206694        4.8289839961
 C        -0.9938209672       -5.1763066624       -0.5537577515
 C        -2.6437367928       -3.1872110290       -0.2914810566
 C        -6.0041633207       -3.7629569508       -6.6075380250
 C        -4.3971672075       -5.6462138637       -7.1924864207
 C        -2.7298992976        0.3313434710       -2.6273028071
 C        -3.1949054878        2.5591881859       -3.9541578223
 C         3.0301802480        0.0091622308       -4.3563854355
 C         3.0434707417       -0.9817408207       -6.6382877741
 C         4.5301160548       -6.1963165725       -4.2005319671
 C         5.8943080327       -4.8530940422       -5.8194356446
 C        -0.7505906540       -6.3724761207       -7.6935088202
 C         0.2035784843       -6.9925438067      -10.1055233200
 C        -4.0158856219       -0.0649572189      -10.0249411277
 C        -4.4614884854       -2.2654761029      -11.2473581977
 C        -2.2257378019        2.8799826220      -16.3840340318
 C        -3.9462286540        4.6194469893      -16.1728563198
 C        -8.7071815974       -0.5980952578      -17.8496138612
 C        -7.4130113937       -1.8514983321      -19.6317487039
 C       -11.5022320230        1.7318085138      -24.7927209469
 C       -10.2341074198        0.0839615877      -26.1364928918
 C        -4.7485686271        4.8469500854      -24.6246124795
 C        -3.7090707967        3.9651029114      -22.5980521832
 H        -4.9352890984        7.0468132154      -23.2629851823
 H        -6.2167820566        7.2226685169      -21.9293019357
 H        -6.7320215432        6.6752596162      -23.6054310851
 H        -5.3786179400        1.6789755522      -25.1054977770
 H        -6.4280455786        2.9443056802      -25.5629261562
 H        -7.5556122333        0.5481371078      -23.8126776857
 H        -7.7120594037        0.5332302424      -25.5428284325
 H       -11.2770970261        0.8526435013      -21.7391912067
 H        -9.6851584016        1.6551667861      -22.0366455485
 H        -9.0287122050       -0.9665056393      -21.8030741792
 H       -10.1670685675       -0.8392168667      -20.4119482182
 H        -5.6869054333       -0.6459178604      -17.0852425826
 H        -6.4878413395        0.8301164014      -16.8055033487
 H        -4.2080394153        0.7152714118      -18.6634971420
 H        -3.7927829981        0.5763748829      -16.8968639846
 H        -2.7327777087        2.0202185151      -13.5128277556
 H        -2.7078096721        0.8467099458      -14.7064574531
 H        -4.8600866890       -0.0282239563      -13.5843833658
 H        -4.4768107918        1.1280303426      -12.2991622075
 H        -0.7831522484       -2.0772891032      -11.9737080472
 H        -1.9342025333       -3.4394454298      -11.7960049535
 H         0.3465798816       -3.0873401727       -9.9085000691
 H         0.4191193802       -4.1121060347      -11.3367907542
 H         2.7496099949       -6.6529731687       -9.1703773014
 H         2.1983709595       -7.1378902768       -7.6445798878
 H         3.7220435554       -4.5025496519       -8.0515849448
 H         4.5706650552       -6.0161179327       -7.8011977275
 H         3.4553225737       -4.0672771665       -2.4102685948
 H         2.3617427941       -4.6827314141       -3.5710596519
 H         2.8177893271       -1.6643892013       -3.0242713894
 H         1.4041257456       -2.5121936592       -2.4675638913
 H         1.2026151492        1.8720078076       -6.9424559992
 H         1.5248788700        1.8306127343       -5.0999575229
 H        -1.1631136897        1.9625595915       -6.5115206908
 H        -0.6395266046        3.0379910550       -5.3870061543
 H        -2.0082348230       -1.4765276771       -4.9207111896
 H        -2.2632247453       -0.9563140599       -6.5085508190
 H        -4.7530595736       -1.5081934174       -6.2097250596
 H        -4.5078167230       -2.1886875336       -4.6711208914
 H        -2.9715806850       -6.0884921586       -4.7369635182
 H        -4.3537814803       -7.0189102938       -4.6802449639
 H        -3.3388583075       -6.9568197054       -2.3062370860
 H        -4.8167058517       -6.0387901390       -2.0925136054
 H        -3.3517920112       -4.1724012495        2.1601940555
 H        -2.0825256157       -5.5152788257        2.0404210701
 H        -3.4292857904       -6.9243957318        3.2859996431
 H        -4.7407608698       -6.5304554879        2.1220270378
 H        -2.7822922899       -5.7454235130        5.2501621629
 H        -2.6517747128       -7.0581435101        6.4571180721
 H        -2.5177728167       -5.3534890673        6.8357080459
 H        -7.3321563359       -6.0025602122        6.1185304988
 H        -7.6270033070       -5.4839945997        4.4794441322
 H        -6.8853160570       -4.4618356097        5.7753388786
 H        -4.5438469253       -8.0048517012        5.0471651184
 H        -5.8201863578       -7.8031146637        3.7978708482
 H        -6.2078160539       -7.9797750465        5.5032013643
 H        -0.5017151560       -4.4342183498       -1.1547125768
 H        -1.0090748511       -6.1861777287       -0.9961000934
 H        -0.7846014958       -5.1129792087        0.5553290124
 H        -2.1790046769       -2.6942347650       -1.0989529137
 H        -2.0434067699       -2.9050023893        0.5525240615
 H        -3.6609606136       -2.7229052241       -0.2643972559
 H        -5.9665640357       -3.2461436293       -7.5366455376
 H        -6.2921035464       -3.0845910388       -5.8592285119
 H        -6.8589404638       -4.5075543557       -6.6937837142
 H        -4.9887379695       -6.4840656416       -7.0916425994
 H        -3.3944873256       -5.9564943177       -7.0489602385
 H        -4.4739144042       -5.2425536599       -8.2210058148
 H        -3.7684622977        0.3961116583       -2.3867807424
 H        -2.1211004618        0.6298292839       -1.7770003737
 H        -2.4234096690       -0.6295896321       -3.0009446313
 H        -3.1998437133        3.0111089414       -4.9097006894
 H        -2.8431592664        3.3398946672       -3.2759897415
 H        -4.2217409132        2.4668946100       -3.5438383407
 H         3.6608493884        0.8083564004       -4.7835964163
 H         3.7886831426       -0.6134110989       -3.8101684074
 H         2.5871554231        0.5576150592       -3.5365730789
 H         4.0193861684       -1.2309591297       -6.1570102815
 H         3.2165923882       -0.0102382836       -7.0434844495
 H         2.7398280278       -1.5227533065       -7.5007583393
 H         5.0151513787       -7.0538510525       -4.6329350218
 H         3.5360746915       -6.5158784693       -3.8510101564
 H         5.0215786609       -5.9190498098       -3.2517193078
 H         6.1182208849       -3.9300315898       -6.3133086063
 H         5.9387942121       -5.7113663924       -6.6158461519
 H         6.5265056558       -4.9333510145       -4.9519226212
 H        -0.5501175982       -5.7842335873       -6.7681402843
 H        -0.6905633210       -7.3983676528       -7.2977202034
 H        -1.7745297971       -6.2686917397       -7.8653794961
 H         1.0588475152       -7.6781748863       -9.8931264423
 H         0.3993158170       -6.5133430512      -11.0579253682
 H        -0.6164408983       -7.6504796654      -10.1211857501
 H        -3.3995216872        0.7533591559       -9.8271976332
 H        -4.5440078531       -0.5145358745       -9.1596244239
 H        -4.8556642317        0.2455922541      -10.6675775683
 H        -4.4885039886       -2.9247817437      -10.4029297005
 H        -4.3707586587       -2.8277015345      -12.1350696179
 H        -5.4801594821       -1.8695622231      -11.2908500725
 H        -1.7464348017        3.1538612154      -17.3408107718
 H        -2.0643930171        1.7665688630      -16.2314073639
 H        -1.6597591123        3.3932767026      -15.6338243019
 H        -3.6812049717        5.0839313527      -15.2037891064
 H        -4.9298057087        4.8886768343      -16.3507654071
 H        -3.3434128690        5.1210353349      -16.8781718546
 H        -8.3761018199       -1.3399468281      -17.1320442010
 H        -9.7480629840       -1.0226218173      -18.2246686922
 H        -8.8266398335        0.3401632151      -17.3951304229
 H        -6.7495425032       -2.2875372698      -18.8415391523
 H        -6.6803732841       -1.7422781732      -20.5253918132
 H        -8.1954535584       -2.4743917891      -19.8660169132
 H       -11.5362985473        2.4353279933      -23.9179475057
 H       -12.4273076773        1.0716475047      -24.6933653537
 H       -11.5426531859        2.2068650286      -25.7949814901
 H       -10.0194408505        0.7577094997      -27.0306222617
 H       -11.1332676721       -0.5004781533      -26.4275436152
 H        -9.3685315935       -0.5807582082      -26.0617942835
 H        -3.9687992526        4.2767753717      -25.1604218013
 H        -4.1635082917        5.7535007593      -24.4898164428
 H        -5.5742558545        5.0090340400      -25.2679117919
 H        -3.9426888123        3.8133181824      -21.5486977299
 H        -3.0011131418        4.7475755383      -22.6212293643
 H        -3.3436652383        3.0546233171      -23.1065786368
 Na       -6.0916218752        2.9536294857      -20.1487696238
 Na       -0.5665407856       -2.8973939020       -7.3340400023
