232

 C        -5.0915054874        6.0370535152      -22.5336878600
 C        -5.1444735943        4.4469002677      -22.2903466160
 O        -5.1388407457        4.1410640437      -21.1445158321
 C        -4.8265971131        3.3670293455      -23.3706334623
 C        -6.2325239323        2.6045550399      -23.6042975161
 O        -6.7294122514        1.9134356149      -22.7047372496
 C        -6.9299151579        2.6520465472      -25.0000072855
 C        -8.1093235022        1.7228343785      -25.1395063849
 C        -9.3558782234        2.2156382225      -24.4849444560
 O        -9.5333121604        3.3327678887      -24.0380427532
 C       -10.5883473411        1.2409431267      -24.2846535671
 C       -10.1594635890        0.3028523651      -23.0639048488
 O        -9.3615972156       -0.6136322717      -23.2515119411
 C       -10.8093978589        0.5750351621      -21.6952843903
 C       -10.1600717340       -0.1836353168      -20.4921540143
 C        -8.6513513309        0.1280264402      -20.2836566675
 O        -8.1093876171        1.0663514441      -20.7690642002
 C        -7.7900924179       -0.9175901000      -19.2902876594
 C        -6.5130570512       -0.2993485202      -18.8218896693
 O        -5.6082748187        0.0674314224      -19.6144853600
 C        -6.2520627098       -0.0365740580      -17.3672833151
 C        -4.8644896257        0.7512054298      -17.2104037297
 C        -4.9885721565        2.2268349096      -17.1174334460
 O        -5.5200352856        2.8388342203      -18.0894945340
 C        -4.4538318074        3.0294851322      -15.8128367413
 C        -4.3994393111        2.1069328823      -14.6108716621
 O        -5.2593587029        1.2901449130      -14.5362110832
 C        -3.3257160335        2.2726747312      -13.5354739047
 C        -3.6307877491        1.3355458797      -12.3829007075
 C        -2.7832091393        0.0077941129      -12.4710406276
 O        -2.0807740611       -0.2990864400      -13.3675802415
 C        -2.9951290179       -1.1367323371      -11.2466504447
 C        -1.5344968071       -1.5589376276      -10.8127450981
 O        -1.0126839314       -1.0941437191       -9.7809083248
 C        -0.6496920760       -2.3468721714      -11.6942003125
 C        -0.0931322007       -3.5509268204      -10.8703410668
 C        -1.0329137859       -4.6335561803      -10.2612814588
 O        -2.1683901283       -4.2822668828      -10.2396770712
 C        -0.3616274629       -5.8301834583       -9.6012230446
 C         0.7625515024       -5.3479711631       -8.5658446721
 O         0.5665652244       -4.3511403527       -7.9181745641
 C         2.0221046463       -6.1596548200       -8.4525648366
 C         3.2642749379       -5.5633927239       -7.7552483696
 C         3.3955428185       -5.7669182767       -6.1963126623
 O         2.5142377667       -6.4054063429       -5.6111182160
 C         4.5193171379       -5.0384587808       -5.4425361035
 C         3.9198896861       -3.6178002875       -4.9318642605
 O         4.5726928228       -2.6304275346       -5.1423462719
 C         2.6200890093       -3.4497256060       -4.1274557679
 C         2.1257908981       -1.9386025385       -4.0539556018
 C         1.3975147690       -1.5883361109       -5.3269465160
 O         0.5699955517       -2.3951722687       -5.7958032579
 C         1.8220967359       -0.3135783829       -6.1144269870
 C         0.5636577927        0.5011705609       -6.3592729464
 O        -0.3339666387        0.0532077564       -7.0593166411
 C         0.3562674828        1.9135388371       -5.6635144225
 C        -0.9722352659        2.0535081484       -4.9944150891
 C        -1.1288714918        1.1339207656       -3.8339273658
 O        -0.1828443068        0.4208766661       -3.5097083672
 C        -2.4846921831        0.9968185262       -3.0727723915
 C        -3.5239465716        0.5038457489       -4.2188970417
 O        -4.0925211439        1.3197416873       -4.8930966836
 C        -3.5357689181       -1.0209959637       -4.4839817596
 C        -4.0302835918       -1.3760187720       -5.9543014359
 C        -3.7305301400       -2.8060489610       -6.1463625753
 O        -2.5800019548       -3.1089940440       -6.5127119575
 C        -4.7457759925       -3.8799675758       -5.9676825631
 C        -4.5971483095       -4.5240090205       -4.5094096381
 O        -5.4031868472       -4.3018374973       -3.6459206991
 C        -3.4065705853       -5.5109133271       -4.2029383682
 C        -3.2563638933       -5.7034966480       -2.7576272960
 C        -2.9133583225       -4.3800595371       -2.0135457486
 O        -3.1835013752       -3.2149513282       -2.2698462288
 C        -2.1988556680       -4.6232548935       -0.6678266632
 C        -3.1008669288       -5.6066252759        0.3125910197
 O        -3.2143152528       -6.7450363277        0.0184062817
 C        -3.5776962518       -4.9064604533        1.7030976340
 C        -4.4980158732       -5.7575726561        2.6904121367
 C        -4.1875333225       -5.7679304768        4.0980120103
 O        -3.3840312931       -4.9480344304        4.5526028568
 C        -5.1683422353       -6.7117604656        4.9316730428
 C        -4.6493963251       -6.9599811177        6.4906028875
 O        -5.4984452879       -7.1118544324        7.3430967912
 C        -3.1708293481       -7.0229000123        6.7009676326
 C        -6.4777200521       -5.9961987084        4.9490744273
 C        -5.1767705742       -8.1420284571        4.4049396593
 C        -0.8386600736       -5.4377865827       -0.9066459104
 C        -1.8330573487       -3.2662935987       -0.0169464325
 C        -6.2868305637       -3.4216111065       -6.1544671244
 C        -4.4588767126       -5.0152580682       -7.0031451444
 C        -2.2613273331        0.0581969895       -1.8967425781
 C        -2.7133162200        2.4261512471       -2.4599821698
 C         2.9951570072        0.4424481086       -5.4843570570
 C         2.2434526746       -0.8349238341       -7.4480862249
 C         4.9819857286       -5.8120577769       -4.1332335298
 C         5.8844687554       -4.6193549676       -6.2759778226
 C        -1.4368688364       -6.7257100737       -8.8892923602
 C         0.3829447711       -6.6326453645      -10.8259768011
 C        -3.7676617400       -0.3720055960      -10.0462001994
 C        -3.9208374261       -2.1360020888      -11.9256572930
 C        -3.0749680551        3.6316308498      -16.3084145881
 C        -5.2973656378        4.3118615005      -15.6904136856
 C        -8.7213862601       -1.4173921594      -18.1715657875
 C        -7.4200196574       -2.2524113530      -20.0456680021
 C       -11.8778407509        2.0170111007      -23.8949880719
 C       -10.9776392713        0.2226682289      -25.4830175381
 C        -4.3268936894        4.0638126391      -24.6006121597
 C        -3.8001156695        2.3432489431      -22.7606307904
 H        -4.0270252593        6.1267024571      -22.7768852445
 H        -5.2604971499        6.6051950757      -21.6413601093
 H        -5.8087820914        6.2727221207      -23.4033277077
 H        -6.3056710755        2.6740726512      -25.9024980797
 H        -7.3881207037        3.6801025232      -24.9472209084
 H        -7.7389059875        0.7470937183      -24.7133673050
 H        -8.1694323622        1.5952102285      -26.1991078291
 H       -11.8643024024        0.2692338194      -21.8435022956
 H       -10.7596343263        1.6610466765      -21.5987882231
 H       -10.3695475769       -1.2728946058      -20.6088463402
 H       -10.7226187810       -0.1290943616      -19.5964892165
 H        -6.1596390687       -1.0174805194      -16.7914798670
 H        -7.0064567088        0.4679074548      -16.7840378089
 H        -4.1983032734        0.4818351331      -18.0019886033
 H        -4.4183927134        0.3377771741      -16.2640580221
 H        -3.2798800689        3.3244443542      -13.2212390626
 H        -2.3851820556        2.0617692424      -14.0491949310
 H        -4.7548789373        1.1635554716      -12.3459597327
 H        -3.3083197850        1.7622068268      -11.4539281783
 H         0.2026844298       -1.6751414190      -11.9623262526
 H        -1.0733192025       -2.5848631381      -12.6735191912
 H         0.4398586553       -3.1332517457       -9.9500253679
 H         0.8291693243       -4.0515463139      -11.3760433317
 H         2.3694525541       -6.4301333813       -9.4174713600
 H         1.6117623441       -7.2525791941       -8.0419075722
 H         3.3716626192       -4.5470923429       -8.0352402606
 H         4.0660058914       -6.1364038069       -8.1983944471
 H         2.7149158469       -3.8542295175       -3.1223166573
 H         1.9494332341       -4.1848600681       -4.5765051340
 H         2.9927399567       -1.2174409222       -3.9210798692
 H         1.3902966109       -1.8618872163       -3.2361527383
 H         0.5376376458        2.7549185475       -6.3705990252
 H         1.1311098055        2.0682756569       -4.9736100429
 H        -1.8299011562        1.7781040499       -5.5995960925
 H        -0.9472913939        3.1711204789       -4.6224763167
 H        -4.2053984160       -1.2730999797       -3.6862921649
 H        -2.5520920033       -1.5253307005       -4.5048441372
 H        -3.2736902933       -0.8605098827       -6.6040849594
 H        -5.0929628066       -1.1311565021       -6.0655808864
 H        -2.5186341361       -4.9857783852       -4.6347588443
 H        -3.6412597485       -6.3773664916       -4.7286180763
 H        -2.4744584693       -6.4380370991       -2.5305035996
 H        -4.2816755040       -6.0415220271       -2.4168314339
 H        -3.8908860765       -3.8882508789        1.5277173345
 H        -2.6056558935       -4.7152124563        2.1626885955
 H        -4.6688266932       -6.7425493794        2.2400136381
 H        -5.5090739274       -5.2995943255        2.6346675067
 H        -2.5507041323       -7.5748711913        6.0458093341
 H        -2.9961751142       -7.4915945344        7.6485744937
 H        -2.7083091420       -6.0343710256        6.8279972676
 H        -7.1620443093       -6.3759407086        5.6765799129
 H        -7.0198785780       -6.0741798184        4.0146382175
 H        -6.3552811691       -4.9123728462        5.0842940077
 H        -4.2817457882       -8.7303847101        4.3572466817
 H        -5.6341831940       -8.2376950041        3.4527783791
 H        -5.7051765950       -8.7287256997        5.0885757032
 H        -0.3053014264       -4.8830975087       -1.6018468053
 H        -1.1453535958       -6.4450520857       -1.0249685243
 H        -0.2438945147       -5.2541199014        0.0504412677
 H        -1.1217782614       -2.7411936123       -0.5995323053
 H        -1.3836423081       -3.4177514609        0.9614700340
 H        -2.6972684627       -2.6293804876        0.0943541676
 H        -6.4557738842       -2.8551737915       -7.0168706287
 H        -6.7414525858       -2.9475397774       -5.3262243823
 H        -6.9079060049       -4.3302243340       -6.2068817443
 H        -5.2255038306       -5.7281110518       -7.0763384152
 H        -3.5937535131       -5.5626613553       -6.7630310749
 H        -4.2139328619       -4.5580487490       -7.9932833354
 H        -3.0999208082        0.1092133645       -1.2442907387
 H        -1.2961349466        0.1810945120       -1.4067999069
 H        -2.1131626784       -1.0127488328       -2.1655968888
 H        -2.9354153736        3.2326004334       -3.1536664838
 H        -1.9017788305        2.7435827662       -1.8902744620
 H        -3.6235751788        2.5470125427       -1.7922259036
 H         3.0690804006        1.4758571017       -5.9054702378
 H         3.9954126377        0.1274081353       -5.8618199733
 H         3.0869872633        0.5877174361       -4.4436473274
 H         3.0201923693       -1.6131398796       -7.2956679468
 H         2.6760034100        0.0221531561       -7.8828916704
 H         1.4857047965       -1.3977528383       -7.9361074265
 H         5.2876960227       -6.8174620079       -4.1981097611
 H         4.1176351306       -5.9250991979       -3.4081379931
 H         5.6907068607       -5.2525911853       -3.5922775215
 H         5.6688924217       -3.8430134190       -7.0095391167
 H         6.2838018049       -5.5328951393       -6.8076134799
 H         6.6677339072       -4.2385562300       -5.6074761596
 H        -0.9855933692       -7.1794324148       -8.0810597606
 H        -1.8273856639       -7.5407042476       -9.5059986207
 H        -2.3052942753       -6.2674888844       -8.5262424395
 H         0.8151541977       -7.6019910785      -10.4902309169
 H         0.9675798105       -5.9997957074      -11.4854875054
 H        -0.4642376540       -6.9663790235      -11.2609511756
 H        -3.1353932319        0.4186503679       -9.8090924562
 H        -3.7265651646       -1.0757864098       -9.1967147197
 H        -4.7841610613       -0.0244754588      -10.3105875071
 H        -4.1434503265       -3.0712798600      -11.4883891983
 H        -3.4846253361       -2.4652584294      -12.8259676688
 H        -4.9183837814       -1.6516259633      -12.0774918788
 H        -3.1067221293        4.2187116347      -17.1983939206
 H        -2.1942565024        2.9674694856      -16.3828760341
 H        -2.7132146596        4.3304926670      -15.6501981543
 H        -4.7802208593        5.1310941948      -15.2737140278
 H        -6.1731400656        4.2467430488      -15.0488765039
 H        -5.5700629635        4.6820180779      -16.6778566941
 H        -8.1411392802       -2.0863766044      -17.6114746587
 H        -9.5861498853       -1.9399284246      -18.4499928543
 H        -9.1250513303       -0.5601210880      -17.4728937974
 H        -7.1269968824       -2.9781053722      -19.2491205577
 H        -6.7412160164       -2.0250453293      -20.8564908931
 H        -8.4081137996       -2.5776030267      -20.6171960004
 H       -11.8250703438        2.7166551407      -22.9852530964
 H       -12.7627938723        1.3361976424      -23.8582043961
 H       -12.2594528969        2.6641709169      -24.6569134073
 H       -11.5141517716        0.5980386723      -26.4468754131
 H       -11.6245440516       -0.4871060568      -24.9544200090
 H       -10.0570313959       -0.2997293306      -25.6954629857
 H        -4.4152081187        3.3382833179      -25.4240702477
 H        -3.3110082401        4.4233091320      -24.4332386952
 H        -4.9171291632        4.9450501659      -24.7967965748
 H        -4.3269235390        1.8533479732      -21.9190071939
 H        -2.9261358412        2.8814232243      -22.4203314440
 H        -3.3958574549        1.5629679477      -23.4001015767
 Na       -5.9844013064        2.4037439638      -20.5080105227
 Na       -0.8279803822       -2.2030260812       -7.6818635112
