232

 C        -5.1797748100        5.7773736233      -22.7261002091
 C        -4.8990670017        4.3210618409      -22.3964945020
 O        -5.1403117209        3.8550497536      -21.2559456367
 C        -4.7746867586        3.2523630496      -23.5323436927
 C        -6.2297682518        2.5075953206      -23.6387453506
 O        -6.8439782575        2.1160927519      -22.6565217972
 C        -6.8206298521        2.6641659601      -24.9635999897
 C        -8.1872874560        1.8740211272      -25.0393410424
 C        -9.3261227694        2.4759103089      -24.3322207041
 O        -9.4737232695        3.5982605723      -23.9014447773
 C       -10.4937156738        1.3730950698      -23.9560081796
 C       -10.0103522436        0.5719163699      -22.7188771808
 O        -8.9637588607       -0.0613454404      -22.8436940101
 C       -10.7217173388        0.6453130228      -21.3769363628
 C       -10.1934266074       -0.4617892196      -20.4426198986
 C        -8.8109597941       -0.0539371391      -19.9801026709
 O        -8.4356697387        1.0547925519      -20.2786188558
 C        -7.8824256188       -1.1011112111      -19.2532111404
 C        -6.4449285127       -0.4952220146      -18.8951780300
 O        -5.6295176797       -0.2694612738      -19.7794792823
 C        -6.1532331044       -0.2186317438      -17.4027652721
 C        -4.7622146179        0.4948592704      -17.2988625270
 C        -5.0380435233        1.9782696731      -17.1946763414
 O        -5.5323353949        2.6231500262      -18.1001243751
 C        -4.6571559190        2.8721296588      -16.0231782872
 C        -4.5270174935        2.0142269554      -14.6584107682
 O        -5.3086130452        1.1475594586      -14.4121162328
 C        -3.3985920696        2.4791444078      -13.6666902614
 C        -3.4314426737        1.6758898694      -12.3921189805
 C        -2.7529629046        0.3320738108      -12.4822239315
 O        -1.9912470237        0.1717662200      -13.3829082939
 C        -3.1046253276       -0.8565567605      -11.4959080539
 C        -1.7276805141       -1.4366336701      -10.9192772518
 O        -1.1754552485       -1.0172353087       -9.9091921967
 C        -0.8811612917       -2.3031696332      -11.8544052279
 C        -0.0019686074       -3.3234134043      -11.1545147982
 C        -0.9404635121       -4.5059016253      -10.4245795421
 O        -2.0984775038       -4.3825994529      -10.3477621676
 C        -0.2156037442       -5.6166223781       -9.7052259201
 C         0.7445110733       -5.1328261518       -8.6244189086
 O         0.7091853631       -3.9678985306       -8.1902446214
 C         1.7883556934       -6.0354666161       -8.1049425482
 C         2.9571269440       -5.2161106249       -7.5117111012
 C         3.4274761461       -5.7289834233       -6.1245022322
 O         2.7329786183       -6.5675086085       -5.5860947513
 C         4.5200040379       -4.9092134343       -5.4194844531
 C         3.9389392712       -3.4514744213       -5.1888988029
 O         4.3154097499       -2.5460598931       -5.9195019221
 C         2.8928286975       -3.2760360317       -4.0591897665
 C         2.0263580141       -1.9957005810       -4.1289730060
 C         1.2603206118       -1.6761200849       -5.4707288790
 O         0.4341711194       -2.4444345453       -5.9634317648
 C         1.7247764797       -0.3796490451       -6.2330891421
 C         0.4150766860        0.4335012633       -6.2434194067
 O        -0.6040317560       -0.0554049984       -6.7617518938
 C         0.3756488212        1.8946796803       -5.7390719301
 C        -0.8434966210        2.0646008515       -4.8461163990
 C        -0.9444091838        1.0265621191       -3.6715736691
 O        -0.0683722316        0.1852018340       -3.4787279268
 C        -2.3009682599        0.9724360617       -2.9529112483
 C        -3.2702415240        0.5687798160       -4.1302541672
 O        -3.9646585405        1.3837349971       -4.7107604292
 C        -3.5420260481       -0.9389333036       -4.3750066093
 C        -3.7515934389       -1.2061801052       -5.9012332262
 C        -3.6436574942       -2.7168604152       -6.2880641775
 O        -2.6236797116       -3.2097413127       -6.8088752518
 C        -4.8060590325       -3.7343237318       -5.9627975559
 C        -4.6494500993       -4.2645149381       -4.4710245403
 O        -5.5049759004       -4.0412016759       -3.6528685320
 C        -3.3930274487       -5.0494784721       -4.1680143337
 C        -3.0871623135       -5.5463256981       -2.7207787690
 C        -2.7324379658       -4.4535938720       -1.7851598144
 O        -2.9780081855       -3.2755495879       -2.0174593238
 C        -1.8769992844       -4.6960924149       -0.3944452876
 C        -2.8717104712       -5.3822069228        0.5413956266
 O        -3.1260144836       -6.5279425917        0.3301171589
 C        -3.6472845351       -4.7787401367        1.7233447779
 C        -4.5814786013       -5.7067598326        2.4881732748
 C        -4.1427117365       -5.9922698821        4.0188009820
 O        -3.0597745203       -5.6525509345        4.4571255314
 C        -5.1253216977       -6.9419804303        4.8661440580
 C        -4.6296175107       -7.1395503773        6.3087206987
 O        -5.4205834183       -7.1355269647        7.2168820955
 C        -3.1113152336       -7.2264345945        6.7171880266
 C        -6.6282791941       -6.4341925651        4.9307430694
 C        -5.2170804969       -8.3060919429        4.1981148265
 C        -0.6353243573       -5.6320437614       -0.6607354985
 C        -1.4321897248       -3.2846526276        0.1175667027
 C        -6.2441393593       -3.0762880377       -6.0474931386
 C        -4.7873690620       -4.9767911040       -6.9536141669
 C        -2.2759739119       -0.1979516967       -1.7632295517
 C        -2.9243395615        2.2502162633       -2.3864506534
 C         2.9862871494        0.4879257483       -5.7124250321
 C         2.0077631643       -0.8081667479       -7.7118052191
 C         4.5920767520       -5.5315792662       -3.9816569302
 C         5.7923540744       -4.8987868734       -6.3825252316
 C        -1.3006431363       -6.4776610251       -8.8682889058
 C         0.4310556221       -6.4852171754      -10.9462686163
 C        -3.8432169491       -0.4148104785      -10.2084864810
 C        -3.8986932735       -1.9907742109      -12.1520188883
 C        -3.3404338263        3.5479264173      -16.4176769749
 C        -5.8170513744        3.8910073904      -15.6447141633
 C        -8.6861392165       -1.7543882969      -18.0807191804
 C        -7.5070319659       -2.2106730501      -20.2756680773
 C       -11.7861119828        2.1111144202      -23.7051476891
 C       -10.6422338929        0.4303257608      -25.2286628395
 C        -4.2044715961        3.9089074896      -24.8079735354
 C        -3.9332189963        2.0787923013      -23.0626728951
 H        -4.2328204623        6.1522381869      -23.1224491010
 H        -5.3405691854        6.1888066693      -21.7690966630
 H        -6.0443925683        5.8844161507      -23.4234379928
 H        -6.1422027540        2.5902992275      -25.8090900231
 H        -7.0561994894        3.6901621674      -24.9932916358
 H        -8.0920178015        0.9011140588      -24.6661332623
 H        -8.3085788957        1.8282055258      -26.1092279918
 H       -11.7843681007        0.6037349907      -21.6549285662
 H       -10.6055155495        1.6245780822      -20.9097908019
 H       -10.1702735239       -1.4339105216      -20.9312524061
 H       -10.9312915008       -0.7792510317      -19.6816971265
 H        -6.1773171413       -1.1313157140      -16.8212223449
 H        -6.9709365289        0.3354834377      -17.0723010127
 H        -4.3020645809        0.2742640002      -18.2942839163
 H        -4.1998528927        0.0706167458      -16.4099617329
 H        -3.4394126470        3.5676742557      -13.4494793157
 H        -2.4798266900        2.3415611266      -14.1726626479
 H        -4.4153729386        1.5400109601      -11.9578569400
 H        -2.9192181512        2.3192789583      -11.6838077315
 H        -0.3432656175       -1.7661012830      -12.5953529669
 H        -1.6446182809       -2.8719737219      -12.4117788036
 H         0.6338451321       -2.8946341104      -10.4641858442
 H         0.7258490741       -3.7561331767      -11.8754162909
 H         2.1072814588       -6.7354830316       -8.8145305568
 H         1.4668306779       -6.5531110881       -7.1922757142
 H         2.6581211706       -4.1579662276       -7.2643985822
 H         3.7897979620       -5.2655880611       -8.2181172918
 H         3.5703622680       -3.2684004958       -3.1755928342
 H         2.3455387829       -4.1976741153       -3.9585774873
 H         2.6770787526       -1.1032577780       -4.0322739712
 H         1.3578221405       -1.9157554208       -3.3032299120
 H         0.2434822817        2.5572920086       -6.6907680508
 H         1.3309364474        2.1384971266       -5.3192724540
 H        -1.6765998741        1.9046479700       -5.4078997630
 H        -0.8171190999        3.0253560795       -4.3425920577
 H        -4.4505347184       -1.2933366160       -3.8963977396
 H        -2.7222441379       -1.5769960613       -4.1207976894
 H        -2.9591183104       -0.7830270639       -6.5133445970
 H        -4.7845704196       -0.8747700890       -6.0487369469
 H        -2.5404028439       -4.4390962372       -4.5899558864
 H        -3.5252068066       -5.9073483916       -4.8349669012
 H        -2.2478234204       -6.3165311951       -2.8469532569
 H        -3.9643044420       -6.0455676547       -2.2805179374
 H        -4.0110013685       -3.7184306174        1.6226771261
 H        -2.8161665969       -4.5906542259        2.4472471746
 H        -4.7315567803       -6.6875609255        1.9348454764
 H        -5.5845805679       -5.3689988092        2.5078460682
 H        -2.4813994093       -7.2493206673        5.8046723533
 H        -2.7243369979       -8.0811447537        7.2882397232
 H        -2.7611405503       -6.4044010414        7.3365460199
 H        -7.2314650877       -7.1402434705        5.4700766993
 H        -7.1719368584       -6.4460020531        3.9485089750
 H        -6.7456588376       -5.4512588912        5.3983585239
 H        -4.2163058248       -8.8495311455        4.2032414322
 H        -5.4901942807       -8.3249429200        3.1158173273
 H        -5.8340441475       -9.0347749546        4.7053332640
 H        -0.1244293078       -5.2190116661       -1.5123526778
 H        -1.1300922226       -6.5630999035       -0.5685454418
 H         0.0293058546       -5.5477550622        0.2363270698
 H        -0.7902346823       -2.7802320575       -0.6083242165
 H        -0.8891218494       -3.3272043061        1.0798439397
 H        -2.3220938940       -2.5743436068        0.1413906836
 H        -6.5256477127       -2.8887043329       -7.1026351443
 H        -6.4448807552       -2.1948423588       -5.4837646496
 H        -7.0334993711       -3.7845688940       -5.5773160450
 H        -5.1492000056       -5.8907166818       -6.5452269760
 H        -3.7536957143       -5.1843638702       -7.3291432937
 H        -5.3331407298       -4.7073800612       -7.8964593514
 H        -2.9800627330       -0.9917014613       -2.0232103226
 H        -2.5575591641        0.1449597813       -0.7842050458
 H        -1.3322891677       -0.6995755408       -1.5202720383
 H        -3.2306489315        2.9627405516       -3.1399997962
 H        -2.3398945978        2.7989684727       -1.6637743825
 H        -3.8961674480        2.0062958165       -1.8050693040
 H         3.2362664725        1.3821521352       -6.3050225298
 H         3.9313510620       -0.1269045983       -5.5970957898
 H         2.8220172767        0.8177528819       -4.6982967032
 H         2.9478750987       -1.4109749648       -7.7044646071
 H         2.1276480916        0.1045329172       -8.2862615856
 H         1.2635449499       -1.5128051570       -7.9466275817
 H         5.1655691541       -6.4436998020       -4.0687808344
 H         3.6439542207       -5.8630681950       -3.5061207102
 H         5.1286299453       -4.9600564719       -3.2015552816
 H         5.7443581900       -4.3165120155       -7.2625555395
 H         5.9278361279       -5.9946713936       -6.7280556125
 H         6.5930254165       -4.5570450951       -5.7739401007
 H        -1.1062595970       -7.5822791518       -8.8622370249
 H        -2.3613765003       -6.2723036714       -9.2851762385
 H        -1.4561065672       -6.1592764307       -7.8238447051
 H         0.5145556226       -7.5413414921      -10.5263044247
 H         1.4305073784       -6.0523213183      -11.0730729504
 H        -0.1866545751       -6.5216027973      -11.7773968298
 H        -3.2694310074        0.4366348179       -9.9995936564
 H        -3.9144754864       -1.1708935838       -9.3747485735
 H        -4.8081867738       -0.0006694953      -10.5032457782
 H        -3.8402895617       -2.8620261841      -11.4708887375
 H        -3.5324596252       -2.4676993882      -13.0523576651
 H        -4.9778693781       -1.8209308873      -12.2246311363
 H        -3.4001619228        4.2703792914      -17.2722083049
 H        -2.5205404856        2.8475634861      -16.7223243135
 H        -2.8428055168        4.1667597079      -15.6855585638
 H        -5.3343786958        4.7431162769      -15.0894397785
 H        -6.5383823823        3.5414805227      -14.9345688322
 H        -6.2539986357        4.4302005696      -16.4717404444
 H        -8.1490812941       -2.4304139246      -17.5418991000
 H        -9.4410612857       -2.4006711485      -18.5161484667
 H        -9.1801817447       -1.0249811130      -17.3212273768
 H        -6.8656100822       -2.8544702594      -19.7460422499
 H        -7.0622050318       -1.7584039588      -21.1136628058
 H        -8.4661237918       -2.6381297805      -20.6926721032
 H       -11.8431821500        2.8711305307      -22.9458313663
 H       -12.5660296997        1.4004342452      -23.4702292929
 H       -12.1786199816        2.4916075657      -24.6017096958
 H       -10.5510923309        1.1288806106      -26.0789648103
 H       -11.5724379016       -0.0387508586      -25.3688243957
 H        -9.8246929980       -0.2158284516      -25.1922700887
 H        -3.6627849751        3.2228125133      -25.4944462329
 H        -3.4214125140        4.5663324158      -24.3759763595
 H        -4.9321934868        4.5322634167      -25.2278498169
 H        -4.3210251596        1.8070149852      -22.0816625934
 H        -2.8848854349        2.2507255312      -22.9688080096
 H        -4.0505890016        1.1923767889      -23.7559998617
 Na       -6.2347740029        1.9004429226      -20.2479441325
 Na       -0.8126642432       -2.0741457233       -7.7601703570
