232

 C       -20.1877268889       -4.5930396740       -5.5413608725
 C       -20.1371063622       -5.5811611906       -4.3331390835
 O       -19.2450750642       -6.3441763769       -4.2405563354
 C       -21.2993509054       -5.6208515975       -3.1883045474
 C       -20.5167996359       -5.1734685137       -1.8580702420
 O       -19.9283818050       -5.9905069861       -1.1557036747
 C       -20.2538178918       -3.6430711498       -1.6032816892
 C       -19.0201925502       -3.4302702366       -0.8523365149
 C       -17.8290068885       -3.8688709641       -1.7688397825
 O       -17.9046101945       -4.3368390821       -2.9012926630
 C       -16.3880254831       -3.7379098178       -1.2597932138
 C       -15.8143082673       -5.2240983547       -1.0210703613
 O       -16.5316692794       -5.9854727952       -0.3972421188
 C       -14.3701600126       -5.6774850626       -1.4705033897
 C       -14.1985003806       -7.2054864828       -1.1698573534
 C       -15.0269223235       -8.1700104947       -2.1060594499
 O       -16.2082611581       -8.2040603985       -2.3188873010
 C       -14.1534429304       -9.3620697663       -2.5889324984
 C       -12.8633309394       -8.8374223097       -3.3873992321
 O       -12.8563416415       -7.8010268275       -3.9820324073
 C       -11.5845496196       -9.7643561235       -3.4425805444
 C       -10.4627905100       -9.1718323688       -4.2505216260
 C        -9.1653812007       -9.7289390416       -3.5602642066
 O        -9.1304137237      -10.0065671269       -2.4021777630
 C        -7.8429620023       -9.8579614796       -4.4366055935
 C        -7.6333518637       -8.3884431372       -4.9789265434
 O        -7.9257679400       -7.4703752050       -4.2940983138
 C        -6.8787787960       -8.1835492597       -6.3136724942
 C        -6.7562912716       -6.7250354581       -6.5030098049
 C        -7.5108844223       -6.1381687644       -7.6921498599
 O        -8.0247718035       -6.7017849523       -8.6474029207
 C        -7.5489620914       -4.5121901782       -7.7949961674
 C        -6.2806699095       -4.2968730617       -8.6823342493
 O        -5.1655993774       -4.1679972614       -8.2100702781
 C        -6.3625250534       -4.5650059821      -10.2397518196
 C        -5.4667425800       -3.6778151432      -11.1568597337
 C        -5.8184973730       -3.8182940846      -12.7072496228
 O        -6.8754043941       -4.2233692976      -13.0742439279
 C        -4.7302862927       -3.4363286314      -13.7961327251
 C        -3.9504362865       -2.1334713524      -13.1534135601
 O        -4.4882860674       -1.2547353787      -12.5507628275
 C        -2.3460511364       -1.8708231672      -13.6655741217
 C        -1.3402418196       -2.3798911093      -12.7234293882
 C         0.0456143311       -1.8950956069      -13.1776091589
 O         0.2416846729       -1.1204691015      -14.0833437133
 C         1.2282960521       -2.5209265247      -12.2950390489
 C         2.2709400566       -1.3979069722      -12.0806058315
 O         3.4043583294       -1.5053667902      -12.5687507561
 C         1.9478344917       -0.2165605884      -11.2075147353
 C         3.1274150339        0.6288097554      -10.8539501675
 C         2.8971805936        2.0752043174      -10.6651616658
 O         1.8574474401        2.5506501671      -10.9225893692
 C         3.9766344725        3.0752857925      -10.2798236650
 C         4.3007418620        3.9869651448      -11.5102595884
 O         5.2944755207        3.5494062476      -12.1683690353
 C         3.5743210451        5.1723891131      -11.9277895373
 C         4.2319444627        6.5786689956      -11.7329374842
 C         5.4396782322        6.7962061027      -12.6124381824
 O         5.4362621331        6.1716497423      -13.6837587110
 C         6.6647354301        7.5665404962      -12.0752713985
 C         7.6908934339        7.7253272685      -13.3561934389
 O         7.6250555134        8.7349230363      -14.0212791451
 C         8.6944386239        6.5959485869      -13.6734962046
 C         9.1687955857        6.6758491906      -15.1082386918
 C         8.3657575756        5.8490516901      -16.1496233979
 O         7.5045169951        4.9912642176      -15.8802539564
 C         8.6039171403        6.1711553556      -17.6705178604
 C         8.9366170224        4.9057113899      -18.5067566042
 O         9.1122471123        3.8695779115      -17.8717068755
 C         9.0344915573        5.1037963574      -19.9732448682
 C         9.3852265368        3.7952217591      -20.6367004617
 C         8.1464849173        2.9041884414      -20.8950618858
 O         7.0999880499        3.4577520521      -20.9723030071
 C         8.3694438095        1.4005750664      -20.8407686349
 C         8.8099219209        0.9162907771      -19.3741049340
 O         9.7782695994        0.1125462832      -19.3739371355
 C         7.7836001786        1.3070508772      -18.3027794731
 C         8.3653737699        1.1626811141      -16.9606132256
 C         7.5633894653        1.5519678434      -15.6383113279
 O         7.9045919379        2.4737961632      -14.8918551432
 C         6.4022890677        0.6552159490      -15.2076934593
 C         5.0088439911        1.3481071341      -15.5889526482
 O         4.7222651688        2.4956278783      -15.2600126959
 C         3.8726117393        0.5411508944      -16.1748491871
 C         6.4872384929       -0.7809315395      -15.7516804485
 C         6.2905124137        0.4404373602      -13.6460102352
 C         7.0095645484        0.6910522091      -21.2501617397
 C         9.4740437917        1.0000073088      -21.8445304022
 C         7.2924608661        6.8430163298      -18.2200908099
 C         9.8072824812        7.1527558471      -17.7408986049
 C         6.2008003349        8.9633488957      -11.7352097677
 C         7.2880811945        6.6708367903      -11.0038671313
 C         3.3865514188        3.9452339940       -9.1396463184
 C         5.3791348979        2.5113238942       -9.7592489971
 C         0.7551704906       -3.2559364560      -10.9955989411
 C         1.8161386833       -3.6785315720      -13.1712528554
 C        -3.6750921535       -4.5948279078      -14.0851172294
 C        -5.4883575115       -2.9784171933      -15.0737816214
 C        -8.9414861973       -4.1682575586       -8.3158851918
 C        -7.4300854923       -3.8276845374       -6.3822636818
 C        -6.5912448942      -10.1897411660       -3.6678138161
 C        -8.1413653249      -10.8205531870       -5.5702490182
 C       -13.7456154616      -10.1314622527       -1.3070636221
 C       -14.9527064718      -10.2325806933       -3.6088867827
 C       -15.5124753818       -3.0693036896       -2.3739999327
 C       -16.3673450240       -3.0160427276        0.1594643198
 C       -22.4722070755       -4.6171803780       -3.4911177134
 C       -21.7535797773       -7.0734420328       -3.1402971367
 H       -20.6573981749       -3.6597548787       -5.2256134037
 H       -20.7216775520       -5.0806043169       -6.3103258920
 H       -19.1453311342       -4.5231814151       -5.8883647789
 H       -21.1156072262       -3.1679856847       -1.1215403662
 H       -20.2724559074       -3.1669363999       -2.5776555062
 H       -18.9970357816       -4.0445139617        0.0330258174
 H       -18.8721666868       -2.3956024207       -0.4993478042
 H       -13.5980452312       -5.0917047343       -0.9167815496
 H       -14.2949164966       -5.5020911348       -2.5401165174
 H       -14.5208140407       -7.3363370180       -0.2201707403
 H       -13.1211078328       -7.3849851983       -1.4174937198
 H       -11.7924757257      -10.7723300252       -3.7334309413
 H       -11.3904387624       -9.8567357660       -2.3414641906
 H       -10.5695211768       -8.0506911440       -4.2635715843
 H       -10.4940818019       -9.6086269305       -5.2623686713
 H        -7.3658673862       -8.7320380598       -7.1432243496
 H        -5.8539118034       -8.6055508015       -6.1061007299
 H        -5.7397197209       -6.5308352907       -6.8548644126
 H        -6.8460217321       -6.0242712897       -5.6719917137
 H        -7.5049118503       -4.5187471072      -10.4000789536
 H        -6.0011313547       -5.5323308585      -10.3889633637
 H        -4.4235526153       -3.8127153690      -10.8556389098
 H        -5.6511034809       -2.6355817510      -11.0594611903
 H        -2.4711112926       -0.8220885714      -13.8526816163
 H        -2.2512038141       -2.5070291936      -14.5534018425
 H        -1.2282153858       -3.4743750561      -12.5625424106
 H        -1.5626081666       -1.9776218644      -11.6990663331
 H         1.4330548357       -0.4557823927      -10.2885895206
 H         1.1902571281        0.2900921618      -11.7851824557
 H         3.8752777567        0.5469918385      -11.7247602649
 H         3.5872841329        0.2291733920       -9.9769886311
 H         2.5313561311        5.1876516095      -11.4947477889
 H         3.5379943496        5.1935262959      -13.0664458549
 H         4.2526775774        6.8284787691      -10.6542527235
 H         3.4509017549        7.3538707021      -11.8861901232
 H         8.3327151431        5.6327648533      -13.2735039342
 H         9.4944733189        6.8819959312      -13.0236984583
 H        10.2386227347        6.4346393570      -15.3490594394
 H         8.9890301563        7.7466861884      -15.4261268007
 H         9.8400504975        5.8128548570      -20.0904106769
 H         8.0933284549        5.5881275894      -20.3330291383
 H        10.1360953079        3.3378910818      -20.0250434286
 H         9.9265930565        4.0155233319      -21.6106593319
 H         6.9482350715        0.5852199897      -18.3630989040
 H         7.4010027851        2.2920270484      -18.4789836741
 H         9.1812970236        1.9602479704      -16.9312526438
 H         8.9780458081        0.2548346003      -16.7451841448
 H         4.2524690649        0.0158526208      -17.0942589645
 H         3.1488590048        1.1966576665      -16.7075866301
 H         3.4318088304       -0.2537083589      -15.6075093154
 H         5.6479138923       -1.3832797020      -15.4269673435
 H         7.4417504415       -1.2282819994      -15.6374513237
 H         6.4843781843       -0.5877910639      -16.8159878286
 H         5.4771282386       -0.1946566884      -13.2001810582
 H         6.2283008194        1.4692005750      -13.2247421956
 H         7.0833313571       -0.1403248548      -13.2947812966
 H         7.1206685358       -0.3769328824      -21.2024524800
 H         6.8900109211        0.7695530630      -22.3052642907
 H         6.2289783402        0.9950281328      -20.5656870968
 H         9.4948765387       -0.0955358259      -21.8037457592
 H        10.4136621288        1.5206671339      -21.6406162853
 H         9.1785232812        1.4389855047      -22.8213755119
 H         6.9215977403        7.6140238072      -17.5675459150
 H         6.5564986092        6.0484698122      -18.4044284852
 H         7.4838208150        7.4373721050      -19.1823575728
 H        10.6416697963        6.5028971070      -17.6230476026
 H         9.7285891462        8.0409787106      -17.1015684008
 H         9.9336765376        7.4865997556      -18.7547003320
 H         6.9233048848        9.5656499439      -11.2467169926
 H         5.3007855767        9.0276057348      -11.1009849975
 H         5.9965927841        9.5008385158      -12.6952633783
 H         6.5411481383        5.9097247341      -10.8456051669
 H         7.5897692734        7.0604233959      -10.0289630392
 H         8.1706125066        6.1275739563      -11.3670944023
 H         2.8428456063        3.2478926019       -8.4685777439
 H         2.6161540774        4.5079110427       -9.6009819555
 H         4.0189186671        4.4707319884       -8.4725024755
 H         5.7983737528        3.1874870352       -8.9764175891
 H         6.0927097177        2.6640429141      -10.5997408267
 H         5.4099978810        1.4569199014       -9.6227961578
 H         0.1514388051       -2.6050996877      -10.2817368829
 H         1.4638857266       -3.7336920640      -10.3025476515
 H         0.1005646200       -4.1228417684      -11.1866378160
 H         1.0281239525       -4.3613347577      -13.6312617499
 H         2.6266610975       -4.4003815665      -12.8003886423
 H         2.2986035316       -3.1256509459      -14.0006859130
 H        -3.2279017464       -4.3211455740      -15.0043590424
 H        -4.1082498875       -5.5927081619      -14.2233373061
 H        -3.0077571664       -4.7454364249      -13.3009020922
 H        -4.7495319178       -2.9288579656      -15.8189415728
 H        -5.7751589874       -1.9814455387      -14.9399572815
 H        -6.2851267976       -3.6862882232      -15.3469116490
 H        -9.0055074207       -3.0032692171       -8.3096198080
 H        -9.7484331758       -4.6896390402       -7.7134332349
 H        -9.1469850185       -4.5486984330       -9.3031348240
 H        -7.7101910915       -4.6181054461       -5.6559381260
 H        -8.0234793079       -2.9395721270       -6.2736095039
 H        -6.4026172328       -3.5390720832       -6.2901652597
 H        -6.7466841446      -10.5184282835       -2.5998217402
 H        -6.0958292606       -9.2360327104       -3.4783488192
 H        -5.8644319054      -10.7991985046       -4.2008983013
 H        -8.5228778232      -11.7938982419       -5.0849679476
 H        -7.2506317711      -11.0410493894       -6.0873731356
 H        -8.8716223537      -10.6473272349       -6.3779358771
 H       -13.4478989694       -9.3639314018       -0.5723352206
 H       -12.9289645964      -10.7664974543       -1.4549938425
 H       -14.6866576126      -10.6205971003       -0.9292522433
 H       -15.3285349593       -9.6207512256       -4.3566199341
 H       -15.7533714555      -10.7026986757       -3.0851076839
 H       -14.3249966091      -11.0168890455       -3.9839030826
 H       -15.6844380334       -3.7749217408       -3.2102226879
 H       -14.5453078375       -2.8629290409       -2.0152456490
 H       -15.9675619439       -2.1514980779       -2.7256391010
 H       -17.2622195991       -3.3466144413        0.6778462802
 H       -16.5257005489       -1.8867297455       -0.0757645742
 H       -15.4694092367       -3.0554611941        0.7627065393
 H       -22.1106247344       -3.6300237851       -3.2566180658
 H       -23.3462735686       -4.8987053817       -2.9020348012
 H       -22.6895435597       -4.7770705089       -4.5633657431
 H       -22.6534506101       -7.2233552746       -2.6080839988
 H       -20.8700306601       -7.5413862376       -2.6832210481
 H       -21.8937729399       -7.5557637911       -4.1404713617
 Na      -18.1736349863       -6.7130853235       -2.0636058158
 Na        6.1663440951        4.0087278678      -14.3315309982
