232

 C        -4.9600628020        5.6951469493      -22.6835481311
 C        -4.8223719890        4.2013699218      -22.3409739304
 O        -4.8862947383        3.9059296939      -21.1106548557
 C        -4.6950502391        3.0897192734      -23.5058232469
 C        -6.2548925982        2.6242118811      -23.6844620543
 O        -6.9511641737        2.0308433191      -22.8609445208
 C        -6.9563454736        2.7878492477      -25.0232309924
 C        -8.1823025062        1.9688022754      -25.1802090872
 C        -9.2823283859        2.4739602654      -24.2502987558
 O        -9.2584830440        3.6146561317      -23.8355957022
 C       -10.4694236294        1.5658331171      -23.7541660234
 C        -9.9647467160        0.7328880094      -22.4995040672
 O        -8.8586767742        0.2571856057      -22.5801722418
 C       -10.8074391077        0.3400262166      -21.2084465370
 C       -10.2605586172       -0.5420429436      -20.0953423837
 C        -8.7855722611       -0.2019338993      -19.6289015243
 O        -8.3830503463        0.9365338229      -19.3552885272
 C        -7.9086961893       -1.4508384408      -19.2921770983
 C        -6.4229027182       -0.8280642192      -19.1146301386
 O        -5.7885643084       -0.4192839236      -20.0443436239
 C        -5.9756482578       -0.6902433056      -17.6819722044
 C        -4.8971897998        0.2826634818      -17.2803410738
 C        -5.2818250015        1.8389257107      -17.2466516945
 O        -5.7887580866        2.3725698255      -18.1593230073
 C        -4.8549684350        2.8109895205      -15.9833397763
 C        -4.5288505079        2.0811378028      -14.6652113274
 O        -5.1380309354        1.0794279208      -14.4034799810
 C        -3.4286685687        2.7419927123      -13.6879170578
 C        -3.4426367368        1.9101478853      -12.4299001602
 C        -2.7316133940        0.5322940073      -12.5176901614
 O        -1.9534569103        0.2865345657      -13.3966023553
 C        -3.1974876313       -0.7645732693      -11.4943603382
 C        -1.8586337985       -1.4756161054      -11.0360184975
 O        -1.6108655265       -1.4179851284       -9.8364140702
 C        -1.0173198526       -2.0374669594      -12.1550364321
 C        -0.1961597946       -3.2231429856      -11.5482656511
 C        -1.0181912487       -4.1925588104      -10.6564392352
 O        -2.1878430945       -4.0933043943      -10.5521738444
 C        -0.3287132606       -5.4239976925       -9.7966909864
 C         0.7532204550       -4.8415593277       -8.7676233333
 O         0.9271487860       -3.6056184569       -8.7084957464
 C         1.6032237351       -5.8623058507       -7.9835809358
 C         2.9492581553       -5.1947490394       -7.4248447362
 C         3.4769551224       -5.7036334642       -6.0289398785
 O         2.9662651232       -6.5971761575       -5.4227124227
 C         4.5341570354       -4.8290768217       -5.2783164902
 C         3.8312813404       -3.4760301210       -5.1517826168
 O         3.7035814320       -2.7839576307       -6.1799572189
 C         2.9402069795       -3.0810096182       -3.9697154436
 C         2.2204646424       -1.7924545638       -4.2152153629
 C         1.4624690929       -1.6112531938       -5.5915858827
 O         0.6508140664       -2.4598895127       -5.9385445363
 C         1.6694172150       -0.2966963137       -6.3583206318
 C         0.3682761459        0.5364182492       -6.1934450994
 O        -0.6793736755        0.0551501764       -6.6679191507
 C         0.4403851765        1.8696930279       -5.5011538155
 C        -0.8103370564        2.1683875251       -4.6384585535
 C        -0.9186592722        0.9999050822       -3.5804800784
 O        -0.1531188636        0.0506377948       -3.6647435190
 C        -2.2729744467        0.8631958322       -2.8434754928
 C        -3.2251650317        0.2790401914       -3.9631741729
 O        -3.8675555721        1.0608319424       -4.6833667980
 C        -3.3133838403       -1.2364030778       -4.2760965788
 C        -3.5487444009       -1.3000350192       -5.8499494608
 C        -3.6641329642       -2.7453885911       -6.4104072950
 O        -2.8638143315       -3.2288203526       -7.2026524529
 C        -4.8355932991       -3.5808195849       -5.8379554522
 C        -4.5137801923       -4.0694902397       -4.2759783567
 O        -5.4129226157       -3.9660556009       -3.4762558113
 C        -3.1916566633       -4.7519780115       -4.0106330815
 C        -3.1320865629       -5.2747911783       -2.5498448978
 C        -2.5451017955       -4.2826986931       -1.6025239752
 O        -2.6249721559       -3.0743538555       -1.8455994076
 C        -1.8661744955       -4.7015092181       -0.2111319657
 C        -2.9307963337       -5.4864842673        0.6580086268
 O        -3.2133552625       -6.6146143612        0.2769018355
 C        -3.5144914787       -4.7252346650        1.8824276818
 C        -4.6308899437       -5.5481097444        2.5633975292
 C        -4.0815546031       -6.1839412114        3.8068097098
 O        -2.9808561259       -5.8601429231        4.1799467624
 C        -4.9411370926       -7.1272857730        4.6208314249
 C        -4.5125814487       -7.2281266084        6.1844913870
 O        -5.4139654565       -7.0473360027        6.9487556501
 C        -3.2138989827       -7.9012855784        6.4700254560
 C        -6.3598254482       -6.5972242484        4.5493034032
 C        -4.8852446977       -8.5466078505        4.0119100757
 C        -0.6747000309       -5.6667459683       -0.6702053341
 C        -1.3298869151       -3.4983419938        0.6168993407
 C        -6.0824180286       -2.7215773526       -5.7452633311
 C        -5.0864493876       -4.8990288285       -6.6989685892
 C        -2.2232622284       -0.1432016430       -1.6502033963
 C        -2.7832528197        2.2706590665       -2.4174513065
 C         2.9451502750        0.4719707159       -5.9903432310
 C         1.8095533934       -0.5900842931       -7.8315028447
 C         4.7503178080       -5.3808090363       -3.8529185853
 C         5.8997628673       -4.7711874993       -6.1450432149
 C        -1.4306115591       -6.2787714534       -9.1564079715
 C         0.3977494876       -6.2982089635      -10.9127379342
 C        -3.9062841423       -0.3810879088      -10.1937292607
 C        -4.0445336534       -1.5222192252      -12.4610213092
 C        -3.6014366478        3.5665134961      -16.4189968217
 C        -6.1024817740        3.7071231873      -15.6863088601
 C        -8.5989859741       -2.1346182218      -18.0932955661
 C        -7.9543747805       -2.3555940691      -20.5806023771
 C       -11.6787844573        2.4738383598      -23.5229406882
 C       -10.8551371525        0.4394604268      -24.8180393296
 C        -4.0597977512        3.7468650379      -24.8018680196
 C        -3.7920804523        1.9232756861      -23.0270128604
 H        -4.1035047467        5.9242535466      -23.3510070854
 H        -5.0270446255        6.2940431640      -21.8053495904
 H        -5.8826054668        5.7798892303      -23.2258629749
 H        -6.1589772002        2.6993361875      -25.8434108844
 H        -7.2705990634        3.8557347479      -25.2318708810
 H        -7.8216996702        0.9263188934      -25.1056906014
 H        -8.5876108353        2.0792151492      -26.2863121059
 H       -11.7460768733       -0.1182586859      -21.5192600523
 H       -11.2303827915        1.2898641162      -20.8326703394
 H       -10.3939314319       -1.5438801907      -20.4417414117
 H       -11.0155586582       -0.5207533622      -19.2443575328
 H        -5.7710648445       -1.7590964929      -17.3681216967
 H        -6.9344515875       -0.3803642422      -17.1386327002
 H        -4.1495717199        0.2435111963      -18.0533623907
 H        -4.5671911878       -0.0320591816      -16.3408092473
 H        -3.7038219853        3.8120804269      -13.5635412372
 H        -2.4418822626        2.7715361697      -14.1928086943
 H        -4.3708373406        1.7939277945      -11.9077846676
 H        -2.7948804016        2.4450751128      -11.6541819266
 H        -0.3818775867       -1.2422357172      -12.5492552657
 H        -1.7157940373       -2.4122427991      -12.9769145026
 H         0.4255749290       -2.8712618378      -10.7800906943
 H         0.4807067794       -3.7072840475      -12.2459791324
 H         1.8837453328       -6.6737260604       -8.7226880011
 H         0.9793595797       -6.1888031604       -7.2292308273
 H         2.7065989911       -4.1195687673       -7.2702225416
 H         3.7175691440       -5.2802819840       -8.1838788167
 H         3.5195339654       -3.0134561111       -3.0147424796
 H         2.2221785242       -3.9266516854       -3.9580861891
 H         2.8683721581       -0.9378649272       -3.9948297160
 H         1.4471436964       -1.6203212074       -3.4540585705
 H         0.5337566065        2.5783942335       -6.2967593724
 H         1.3413042452        1.8189243207       -4.8732317473
 H        -1.8033101903        2.1375371980       -5.1453496269
 H        -0.6896329274        3.0900327955       -4.0458268129
 H        -4.2279507543       -1.7403770859       -3.8147485931
 H        -2.4453427545       -1.8361885502       -3.9970169248
 H        -2.8148544725       -0.7210579455       -6.3259227032
 H        -4.5678115485       -0.9189366683       -5.9951896876
 H        -2.4778752399       -3.9978537554       -4.1922704637
 H        -2.9887558076       -5.5193574576       -4.8020215017
 H        -2.6944238808       -6.2667926410       -2.6444075820
 H        -4.0941167273       -5.4214869396       -2.1980212843
 H        -3.8124232995       -3.7281995304        1.5886285914
 H        -2.7950104356       -4.5155723907        2.6396532116
 H        -5.0033123825       -6.3949142805        1.9564385371
 H        -5.5742156678       -5.0769448367        2.7631483668
 H        -3.1299247421       -8.9770462766        6.2141582895
 H        -3.0156330437       -7.7976196751        7.5253261038
 H        -2.3748151506       -7.4165409171        6.0795583382
 H        -7.0505322192       -7.0558100952        5.2427706275
 H        -6.8234131981       -6.7522614190        3.5566476356
 H        -6.3138216302       -5.5726178672        4.8451132156
 H        -3.8470267230       -8.7776524527        3.8562987818
 H        -5.2991990631       -8.6460187353        3.0359222280
 H        -5.3370019455       -9.3569798348        4.5086382916
 H         0.0181382603       -4.8837628061       -1.0034886552
 H        -1.0977560477       -6.2655808387       -1.4638842849
 H        -0.4012001039       -6.2729746988        0.1363103195
 H        -0.5977838443       -2.9231341895        0.1275378300
 H        -0.8958457355       -3.9129494043        1.4637087655
 H        -2.1218664206       -2.8000522367        0.9167144570
 H        -6.1973043416       -2.0895914896       -6.6155600197
 H        -6.1561206940       -2.1363993389       -4.8819128204
 H        -6.9839444916       -3.3603702579       -5.8399207516
 H        -6.0104745737       -5.2529117790       -6.2797737764
 H        -4.3563223400       -5.7358267371       -6.6239578050
 H        -5.3678626421       -4.7190971620       -7.7069381479
 H        -2.9394388477       -0.9847770258       -1.4552727556
 H        -2.1343829955        0.3634090463       -0.6957157845
 H        -1.3325787549       -0.7408389638       -1.7975803063
 H        -3.0264042760        2.9826826447       -3.1547820314
 H        -1.9704337024        2.7952364387       -1.8395244381
 H        -3.5139565618        2.1056742810       -1.6182824636
 H         3.1635075124        1.1345364568       -6.7925987384
 H         3.8106684897       -0.1379737131       -5.6993064196
 H         2.8401766195        1.1593794094       -5.1319511443
 H         2.7438929334       -1.1132162339       -7.9377396686
 H         1.9218421780        0.4499060133       -8.2391130814
 H         0.9154828706       -1.0091756332       -8.2116614265
 H         5.1472718731       -6.3814410881       -3.8666043930
 H         3.9089886524       -5.2788140106       -3.2459526762
 H         5.5225086651       -4.8316107497       -3.2611384513
 H         5.7357532270       -4.2383650321       -7.0331685882
 H         6.2034133574       -5.8323571067       -6.5332634310
 H         6.6198006800       -4.3055399229       -5.5469120960
 H        -1.0236813896       -7.2340227569       -8.7895700998
 H        -2.0487052134       -6.6158985434       -9.9808667713
 H        -2.0390714115       -5.8076312281       -8.4363450794
 H         0.8818912412       -7.1262735990      -10.3819219067
 H         1.2358180004       -5.7599429964      -11.3515783303
 H        -0.3979179504       -6.5703232907      -11.6149356992
 H        -3.1893504326        0.2127413914       -9.5998206087
 H        -4.1716788204       -1.3260890894       -9.6989173205
 H        -4.7943529549        0.2249756468      -10.3289156662
 H        -4.6005690912       -2.3248469429      -11.9109313114
 H        -3.5896552841       -2.0259879825      -13.3452183665
 H        -4.8146738701       -0.9595719915      -12.9355779859
 H        -3.6725768738        3.9580361372      -17.4178243379
 H        -2.7575470066        2.9640691422      -16.4988514906
 H        -3.3091651695        4.4323306850      -15.8018030964
 H        -6.1091136373        4.1867906860      -14.6228683505
 H        -6.9748471246        3.0784919340      -15.7946564464
 H        -6.2166905352        4.5190697023      -16.4003304631
 H        -8.1292097563       -2.9381602768      -17.6161552175
 H        -9.5593678227       -2.5779785948      -18.5077738133
 H        -8.8091638043       -1.4292170623      -17.2226192936
 H        -7.1060041552       -2.9970259062      -20.4748090878
 H        -7.8415845380       -1.7520544848      -21.4789139019
 H        -8.9143561329       -2.8484474489      -20.6247607032
 H       -11.5787889530        3.1159480664      -22.6619968913
 H       -12.5965691168        1.9135676419      -23.2235802457
 H       -11.9465765610        3.1169285091      -24.4118381308
 H       -11.3212340846        1.0111559964      -25.6204020103
 H       -11.6685766898       -0.2154975039      -24.4315934126
 H        -9.9310551435       -0.1148965801      -25.1138994596
 H        -3.9261280158        2.9477951015      -25.5332633523
 H        -2.9955624579        3.9519551401      -24.5819747290
 H        -4.6462935683        4.5641975614      -25.1301804894
 H        -4.1699271404        1.4068091888      -22.1607739490
 H        -2.8130310934        2.2399169884      -22.6831410823
 H        -3.7348721547        1.1711076601      -23.8756504541
 Na       -6.1690881372        1.7117817176      -20.5491994324
 Na       -0.8519109866       -2.1905705889       -7.7705483516
