232

 C        -4.6939945523        5.6483999836      -22.6026298893
 C        -4.8488682774        4.1327085024      -22.2377979460
 O        -4.7960698373        3.7466845850      -21.1085758945
 C        -4.7287181167        3.1417247028      -23.5245734604
 C        -6.1573978658        2.4642272995      -23.7815375999
 O        -6.7045816552        1.9875597859      -22.7958803765
 C        -6.8753141940        2.5627243623      -25.0459568672
 C        -8.2863795925        1.9207445431      -25.1745495254
 C        -9.2747155992        2.4999534212      -24.1107278768
 O        -9.2571671700        3.6252147689      -23.6770721354
 C       -10.3809693600        1.5112130088      -23.5599002371
 C        -9.8526141698        0.7666696515      -22.3008423579
 O        -8.7661383141        0.2229420749      -22.2637259236
 C       -10.8066344334        0.7280510467      -21.1074290237
 C       -10.3295121742       -0.3267971046      -20.0658674470
 C        -8.9360198340       -0.1265299739      -19.6094172853
 O        -8.4266816973        0.9527727241      -19.3919945840
 C        -7.9452649915       -1.4387183988      -19.3938620289
 C        -6.4992497351       -0.9304760609      -19.0527607427
 O        -5.7579853175       -0.6263937644      -19.9893725506
 C        -6.0270000854       -0.7445835411      -17.5841693352
 C        -4.7888281646        0.2285087824      -17.4803077033
 C        -5.2977546253        1.6429197624      -17.3287890252
 O        -6.0317167943        2.1434738978      -18.2028434872
 C        -4.9401814036        2.5977286178      -16.1077885032
 C        -4.6085739270        1.8462658762      -14.7565928980
 O        -5.1379245515        0.7746990299      -14.4479075883
 C        -3.5744295388        2.6365001146      -13.7790649173
 C        -3.4651268086        2.0560588017      -12.3713981772
 C        -2.8091053834        0.6158762751      -12.4605647705
 O        -1.8835501642        0.5261611077      -13.2608449491
 C        -3.2707410068       -0.5649151209      -11.5563425840
 C        -2.0099365942       -1.3759822760      -11.0860104228
 O        -1.7613449998       -1.4908864880       -9.8982048308
 C        -1.1153445225       -2.1558422497      -12.2796955040
 C        -0.1507009030       -3.1080507461      -11.6796233603
 C        -0.9635029345       -4.1674274228      -10.7582816984
 O        -2.1757253258       -4.0386616882      -10.6796720230
 C        -0.1862685290       -5.3959801039       -9.9949561192
 C         0.8311243799       -4.7663939565       -8.8985174434
 O         0.9433325951       -3.5842512734       -8.7452150243
 C         1.4993775201       -5.7293295431       -7.8627190201
 C         2.9173590391       -5.3831906290       -7.5117262760
 C         3.2397844482       -5.7317731689       -6.0828742347
 O         2.8324442804       -6.7670654414       -5.6202721760
 C         4.2865474801       -4.7451150109       -5.3241013222
 C         3.7005254756       -3.3251285199       -5.2396106753
 O         3.7053946847       -2.5004242629       -6.1180771782
 C         2.8332285356       -3.0445409771       -3.9633415585
 C         2.2324153979       -1.6300381919       -4.1249956602
 C         1.6469559007       -1.5103312372       -5.5086115063
 O         0.9726981955       -2.4123001868       -5.9919207257
 C         1.8474623479       -0.1963995886       -6.5326481606
 C         0.4871964836        0.6667715958       -6.3097002334
 O        -0.5610090978        0.1835913332       -6.6373580705
 C         0.4401334010        2.0064394126       -5.5086577957
 C        -0.8199536373        2.1249260855       -4.6522511370
 C        -1.0117662645        0.9433946220       -3.6489890927
 O        -0.2602665658       -0.0056801925       -3.6352048787
 C        -2.3326591077        0.8413440667       -2.7888623289
 C        -3.2212586315        0.3079772975       -3.9829746910
 O        -3.9746584966        1.0340451533       -4.6082584695
 C        -3.0455354778       -1.1789751765       -4.1932620036
 C        -3.1295528927       -1.3813451008       -5.6798488186
 C        -3.6018697364       -2.8287719101       -6.2334102323
 O        -3.0449085538       -3.3204013695       -7.2016095403
 C        -4.8611769715       -3.6104820100       -5.6324419385
 C        -4.6332252256       -4.0769124205       -4.1702176120
 O        -5.3548772446       -3.8815998954       -3.2428903687
 C        -3.2437521500       -4.7005496698       -3.8721344256
 C        -3.1560877256       -5.1475838474       -2.4001862375
 C        -2.3569784367       -4.1899530222       -1.5188456933
 O        -2.3395009305       -2.9885975521       -1.6890543862
 C        -1.7219205489       -4.7482481480       -0.2286657796
 C        -3.0417715781       -5.4632320530        0.5234510608
 O        -3.3517098071       -6.6152885058        0.1721728996
 C        -3.6822207239       -4.6645941840        1.7222352867
 C        -4.6068668667       -5.4430935213        2.5853649648
 C        -3.9659993995       -6.2849073238        3.8120671222
 O        -2.8293174875       -6.0537698666        4.1404739566
 C        -5.0073242846       -7.3494789260        4.5310890062
 C        -4.5946606676       -7.4897886175        6.0423664051
 O        -5.1978940534       -6.8233981178        6.8592696000
 C        -3.2760411822       -8.2629408554        6.3988448649
 C        -6.4595958220       -6.9669270140        4.3535088012
 C        -4.7316704093       -8.6762857449        3.8453081978
 C        -0.4982003077       -5.6941434452       -0.6009687650
 C        -1.0999440569       -3.6226005559        0.5510607411
 C        -6.1057634884       -2.6788703150       -5.6604702371
 C        -5.1180657814       -4.8237350790       -6.6100624891
 C        -2.1302499276       -0.0569126791       -1.5851400284
 C        -2.8370558705        2.3071769088       -2.2868980948
 C         3.1115731311        0.5263243478       -6.1236630748
 C         1.8674974073       -0.5969639995       -8.0771521555
 C         4.8058460118       -5.3847099019       -3.9939849286
 C         5.5600519328       -4.5421718239       -6.1651408787
 C        -1.2858935949       -6.0637891921       -9.0204144956
 C         0.4133797954       -6.2588443227      -11.1112822244
 C        -4.1312901110        0.0565764060      -10.4581932457
 C        -4.1624193958       -1.5249979120      -12.4330165903
 C        -3.8251587956        3.6364167006      -16.6706487690
 C        -6.1825175884        3.5375364620      -15.8427598140
 C        -8.4214071394       -2.3941047424      -18.3035120277
 C        -7.7956561587       -2.2768109598      -20.6872379534
 C       -11.5889773742        2.4205332025      -23.0348293893
 C       -11.0054032442        0.5490321637      -24.6026034961
 C        -4.0158701768        3.7178552753      -24.7976491482
 C        -3.9730446875        1.9105317350      -22.9495211368
 H        -3.6722790181        5.6967744008      -22.9449077808
 H        -4.8930413414        6.1899414921      -21.6574933767
 H        -5.4126861150        6.0014854800      -23.3162494774
 H        -6.1584127729        2.3816767691      -25.7781593169
 H        -7.0045662607        3.6213648720      -25.2063000159
 H        -8.1244935123        0.8477089591      -25.2029227312
 H        -8.7758456501        2.0962206680      -26.0718555268
 H       -11.8804939322        0.6975560161      -21.3011519181
 H       -10.7532744331        1.7131065804      -20.6460518184
 H       -10.5758812665       -1.4030688010      -20.3614417427
 H       -10.9244637073       -0.0696885303      -19.1801478485
 H        -5.7905293076       -1.7267743187      -17.2817351040
 H        -6.8134599777       -0.3590372765      -16.9998823387
 H        -4.1648997195        0.1713167120      -18.4113228878
 H        -4.2718684590       -0.0336061059      -16.4999434143
 H        -3.8898261473        3.6718903388      -13.7601906138
 H        -2.7073858519        2.6609932432      -14.4348187199
 H        -4.5281538907        1.9841910987      -12.0308701409
 H        -2.9826569290        2.6124313190      -11.6101137427
 H        -0.4946423510       -1.3783445631      -12.7559754085
 H        -1.6825459761       -2.6828153013      -12.9675150840
 H         0.6107777036       -2.5619454871      -11.0198543893
 H         0.4090888003       -3.5817648441      -12.4676543656
 H         1.4879818283       -6.7623365737       -8.2717918734
 H         0.8297409987       -5.5071018158       -7.0048341043
 H         3.0635612003       -4.3388467968       -7.7800816506
 H         3.6134276083       -6.0661357107       -8.0685236414
 H         3.3950766082       -3.0701892891       -3.0548847870
 H         2.0089669506       -3.7650194721       -3.9761314296
 H         2.8192662315       -0.7835143476       -3.8194991795
 H         1.4013711332       -1.4909011916       -3.4122725762
 H         0.3661421392        2.8738494651       -6.2056965339
 H         1.3257729672        1.9825018730       -4.8770734571
 H        -1.7813478354        2.0995274866       -5.1357697748
 H        -0.7463923930        3.0474707579       -4.1142755094
 H        -3.7952871016       -1.7126852094       -3.6628940168
 H        -2.0732062466       -1.5111936707       -3.8075575857
 H        -2.1089104929       -1.0354652587       -6.0440703712
 H        -3.8547090573       -0.6154691126       -6.0657965312
 H        -2.4809763712       -3.8890023073       -4.1499600440
 H        -3.0583362157       -5.4582416976       -4.6044304832
 H        -2.8158306034       -6.1763887963       -2.4359587183
 H        -4.2852022789       -5.2759833967       -2.1082336130
 H        -4.1741406883       -3.7239400133        1.4056013341
 H        -2.8508404013       -4.2685375632        2.3679361295
 H        -5.1647510558       -6.1083532806        1.9527513481
 H        -5.4605767969       -4.8748443079        3.0096717637
 H        -3.6231665379       -9.1050944987        6.9742729217
 H        -2.5484585901       -7.6894302395        6.9872981324
 H        -2.6206669436       -8.7486000435        5.6227856432
 H        -7.1426498932       -7.6824660381        4.8785057691
 H        -6.7302140920       -6.9618060221        3.2966407846
 H        -6.6476931962       -5.9859519633        4.8618914293
 H        -3.7456814956       -9.1011588803        3.7981767800
 H        -5.0398716857       -8.6375672587        2.7841962679
 H        -5.4759326797       -9.4544330854        4.1393278110
 H         0.1886563336       -5.0238331688       -1.0982983057
 H        -0.8161738784       -6.4628065449       -1.3192691184
 H        -0.2676113438       -6.0249271493        0.4054542257
 H        -0.1977304498       -3.3586834093       -0.0560249272
 H        -0.7462754744       -3.8562303199        1.5818905855
 H        -1.7504916038       -2.7855162482        0.5935812320
 H        -6.6702956841       -2.7071626102       -6.6028185961
 H        -5.9004610189       -1.5806444572       -5.3834361509
 H        -6.8139113948       -3.1281507066       -5.0138033581
 H        -6.1346301787       -5.3086518839       -6.4654803451
 H        -4.3423811073       -5.5622367651       -6.5033259321
 H        -5.1939737313       -4.4467912271       -7.6524791316
 H        -3.0383926863       -0.1114327981       -1.0427748333
 H        -1.5538290144        0.3970535793       -0.7967248676
 H        -1.9855964110       -1.0976532134       -1.7252303666
 H        -3.1444997672        2.8816463369       -3.2078767453
 H        -2.0459662992        2.9758665917       -1.9173254634
 H        -3.5798075529        2.2289202212       -1.5154054612
 H         2.9944523443        1.5715599938       -6.4959045173
 H         3.8940801038        0.0158312020       -6.6575804418
 H         3.4365346816        0.5802718872       -5.0807848772
 H         2.6159411232       -1.3918136645       -8.1643472021
 H         2.2108141050        0.2855227829       -8.5913018200
 H         0.8036861830       -0.6775278162       -8.4142015139
 H         5.5407374157       -6.1921864944       -4.1358156671
 H         3.8962678133       -5.7131612933       -3.4585522688
 H         5.1800580299       -4.7035253461       -3.2714424192
 H         5.1744337219       -4.3359755342       -7.1887104524
 H         6.1987470508       -5.3403940110       -6.2022975227
 H         6.1037216247       -3.6397050643       -5.8012823286
 H        -0.8918167060       -6.6728177573       -8.1771210474
 H        -1.8887385044       -6.8190487842       -9.5593541656
 H        -1.9772814242       -5.2171025580       -8.6279460494
 H         0.8941734706       -7.1224061535      -10.7363781413
 H         1.1740194446       -5.7201778286      -11.6879683571
 H        -0.5086474641       -6.2958228520      -11.7311951874
 H        -3.8406461594        1.0660889080      -10.0965564005
 H        -4.1732702451       -0.6193802298       -9.6073194657
 H        -5.1527486821        0.1309252342      -10.8923180456
 H        -4.2894289314       -2.4938454881      -11.9746996471
 H        -3.8612452634       -1.6219177043      -13.4682885754
 H        -5.1993436023       -1.1629674903      -12.6853195414
 H        -3.9806124873        3.9013149008      -17.7241652197
 H        -2.7357986959        3.3438970269      -16.7318728808
 H        -3.8573343792        4.5685216049      -16.0852606951
 H        -5.8416898870        4.4330377394      -15.3751394063
 H        -7.0234467397        3.0856424626      -15.2466372495
 H        -6.6822509999        3.8040790922      -16.8129566814
 H        -7.5330823238       -3.0687144606      -18.0148432995
 H        -9.2693466941       -3.0070228843      -18.4916707163
 H        -8.5204074100       -1.9300204250      -17.4165178176
 H        -6.9633962151       -2.9972279970      -20.5822980632
 H        -7.4633297440       -1.5758489485      -21.4878094073
 H        -8.7080220657       -2.7667260164      -20.8795233988
 H       -11.3363740418        3.0234184660      -22.1990215498
 H       -12.3822504484        1.8915076072      -22.6231455384
 H       -11.9607584585        3.0955121928      -23.7661637532
 H       -11.2957774757        1.0530401179      -25.5023021893
 H       -11.8779828109        0.2226435507      -24.0847657774
 H       -10.3845631322       -0.3144938210      -24.7295926120
 H        -3.7278679705        2.9771045594      -25.5254590307
 H        -3.0991570926        4.1557846398      -24.4917750206
 H        -4.7598146537        4.4505237827      -25.2430031775
 H        -4.4683363782        1.4335899116      -22.0755511199
 H        -3.0226315866        2.2016632460      -22.4387962057
 H        -3.8517480697        1.1751363994      -23.6795083367
 Na       -6.3527275442        1.6928330991      -20.4343689168
 Na       -0.9993568631       -2.1902063634       -7.5922558851
