232

 C        -4.4501939656        5.3898769417      -22.3983854552
 C        -4.8298624282        3.9243958245      -22.2090170326
 O        -5.2582330227        3.5267085171      -21.1198870928
 C        -4.6960205855        2.9464064383      -23.3919005762
 C        -6.1439400389        2.3930950476      -23.5217618509
 O        -6.8256338692        1.9555021876      -22.6520558526
 C        -6.8874181188        2.4963122669      -24.9217586371
 C        -8.2451558069        1.7339997198      -24.8119716767
 C        -9.2003673138        2.4885591698      -23.8372381733
 O        -9.0283772376        3.6770906967      -23.6128662612
 C       -10.4175437879        1.7345811183      -23.2371152477
 C        -9.9511233019        0.8558352673      -22.0334798421
 O        -8.9519396110        0.1594787837      -22.1623492001
 C       -10.7134860210        0.7725195125      -20.6719772672
 C       -10.2854911537       -0.4382023323      -19.8277113713
 C        -8.7373838618       -0.2349453108      -19.6448677306
 O        -8.3513782468        0.9178069200      -19.5734235140
 C        -7.8444751531       -1.4237805498      -19.5352494187
 C        -6.4123963223       -0.9765452046      -19.0978910974
 O        -5.6629238738       -0.6151106749      -19.9627673287
 C        -5.9547594023       -0.8361066058      -17.5378045009
 C        -4.8178728001        0.1800086868      -17.3400025824
 C        -5.4476004377        1.5902851998      -17.4010665615
 O        -6.1013475307        2.0328725777      -18.3283248441
 C        -5.1015617539        2.5499871147      -16.2442388462
 C        -4.6543881173        1.7943375498      -14.9339185811
 O        -4.9812627428        0.6631395529      -14.6596032748
 C        -3.6792858212        2.6824671126      -13.9887183928
 C        -3.7311781811        1.9515122646      -12.6786498338
 C        -2.8167252980        0.7539304234      -12.5598302229
 O        -1.7903632410        0.6313360965      -13.1691529830
 C        -3.2864184070       -0.4675288997      -11.6349486197
 C        -2.0400213728       -1.2795432629      -11.0623240267
 O        -1.8835855735       -1.1953252862       -9.8437274520
 C        -1.2295037745       -1.9531729266      -12.0843391358
 C        -0.2549548437       -2.9954814403      -11.4274732581
 C        -1.1334727684       -4.1388007496      -10.6516236911
 O        -2.3008258809       -4.2229592060      -10.8944499126
 C        -0.2808685297       -5.2433725083       -9.9149928555
 C         0.7821870400       -4.6363566389       -8.9356610704
 O         0.9522430736       -3.4210687894       -8.8341486684
 C         1.4265780726       -5.6393026141       -8.0069526051
 C         2.9007217975       -5.3128525839       -7.7178592448
 C         3.2269380175       -5.6303847418       -6.2419722471
 O         2.7341901955       -6.5839038717       -5.6433969472
 C         4.2234127090       -4.7504196574       -5.5523708553
 C         3.5327517820       -3.3557810603       -5.2730459779
 O         3.7842818384       -2.4294906937       -6.0476419104
 C         2.6359846562       -2.9923219041       -4.0589493582
 C         2.1668150370       -1.5390077104       -4.2469540018
 C         1.6090038056       -1.3690846643       -5.6896846600
 O         0.7894776863       -2.1737804266       -6.1583012939
 C         1.9531499842       -0.1712457514       -6.5349729948
 C         0.5621867407        0.6131378481       -6.3319258180
 O        -0.4855443737        0.1688089536       -6.8205150243
 C         0.5720668968        1.8664711996       -5.3876005145
 C        -0.7581373423        2.1751447628       -4.6663025861
 C        -1.0690930279        1.0439726165       -3.6588622707
 O        -0.2556093020        0.1439944182       -3.6244683724
 C        -2.3106378022        1.0697681653       -2.7682331905
 C        -3.2482630198        0.3201706021       -3.8099180089
 O        -4.0995694782        0.9352247541       -4.3769241482
 C        -3.2188701025       -1.2505431688       -4.0560982263
 C        -3.2938784037       -1.3927363513       -5.6188961177
 C        -3.5330987438       -2.7660305577       -6.1361253234
 O        -2.8374003797       -3.4413766510       -6.8894047033
 C        -4.8242132588       -3.4692094616       -5.5903506647
 C        -4.6005037909       -3.9452479232       -4.1151881993
 O        -5.4763447559       -3.7861551734       -3.2869110765
 C        -3.3381807187       -4.7834291152       -3.7293733207
 C        -3.0525446267       -5.2589411473       -2.2705518419
 C        -2.2979815595       -4.2468970421       -1.4233551374
 O        -2.0873620428       -3.1190381379       -1.8467187092
 C        -1.5984946618       -4.8160020946       -0.0287507832
 C        -2.8639789753       -5.4536667860        0.6644935733
 O        -3.3176295357       -6.4159891105        0.1500867972
 C        -3.5201593343       -4.6386483623        1.7517210726
 C        -4.6041113326       -5.5768091102        2.4358729286
 C        -4.0203844419       -6.4766081687        3.6089465397
 O        -2.8565829324       -6.3411613754        4.0007959027
 C        -4.9777152546       -7.5844001112        4.3371669461
 C        -4.4772214729       -7.5785570473        5.8517625185
 O        -4.9396573413       -6.6910313754        6.5623718766
 C        -3.4421995361       -8.4791649654        6.4349734516
 C        -6.5057649978       -7.2841544226        4.3592173684
 C        -4.5587108699       -8.7950928139        3.4810817681
 C        -0.6942185586       -6.1152994287       -0.2834100124
 C        -0.9034507763       -3.5989451974        0.6381971883
 C        -6.1037410837       -2.5383408322       -5.6011414322
 C        -5.1945359823       -4.8273556282       -6.2593828744
 C        -1.9367616864        0.3719599328       -1.3974715227
 C        -2.8316377415        2.4520422136       -2.4905881452
 C         3.1322749901        0.8402167130       -6.1877952055
 C         1.9907047853       -0.6704700940       -8.0290399036
 C         4.5652792267       -5.3692873508       -4.1776632549
 C         5.4947563084       -4.5261521818       -6.4302557936
 C        -1.3503040151       -6.1007559411       -9.2649499550
 C         0.6030076464       -6.2630875380      -10.8655470178
 C        -4.0789094738        0.0038187413      -10.3305220549
 C        -4.2495539843       -1.3733183411      -12.4687275443
 C        -3.9253889728        3.3795364915      -16.8890529369
 C        -6.4282005096        3.2826527654      -15.8229556948
 C        -8.4261726494       -2.4058364261      -18.4526586552
 C        -7.7418805238       -2.1244357601      -20.9195681351
 C       -11.5151512653        2.7234714017      -23.0090844079
 C       -10.8545638828        0.6520376447      -24.2887586355
 C        -4.2763811024        3.5947485447      -24.7104287120
 C        -3.6463573931        1.8048252991      -23.1230111573
 H        -3.3271750905        5.4042099374      -22.3832700576
 H        -4.9410180726        6.0333079393      -21.6648817569
 H        -4.8839186010        5.7039258498      -23.4087060062
 H        -6.2891503887        2.2835246315      -25.8729608311
 H        -7.2445573101        3.5266985164      -25.1359576204
 H        -8.0975784932        0.6564480454      -24.5707951413
 H        -8.6667478770        1.6779006281      -25.8814878086
 H       -11.7955328326        0.8145195114      -20.8655684320
 H       -10.5793750113        1.7129028699      -20.1100522679
 H       -10.4904080603       -1.2791406564      -20.4421966591
 H       -10.8076769860       -0.4074844093      -18.8443991092
 H        -5.5996801897       -1.8550626215      -17.1642398186
 H        -6.8773953197       -0.4934739088      -16.9824183084
 H        -4.1137951128        0.0881267515      -18.1606542498
 H        -4.3918361522       -0.0660015596      -16.4033850568
 H        -4.1402277236        3.6804215636      -13.8934820162
 H        -2.7069536648        2.8367571507      -14.4360153508
 H        -4.7399610929        1.6445923334      -12.4925527764
 H        -3.5042311609        2.6210146216      -11.8134109606
 H        -0.7644148185       -1.1428197870      -12.6692563216
 H        -2.0089857017       -2.5496479191      -12.7037614659
 H         0.4149755614       -2.4646055765      -10.7682143219
 H         0.4392912903       -3.6067118060      -12.1357674135
 H         1.3685228938       -6.5607202813       -8.4807721346
 H         0.7919868758       -5.5631531340       -7.0721367062
 H         3.0548940831       -4.2514269997       -7.9657580477
 H         3.5863203705       -5.9045301300       -8.2680679196
 H         3.3307824308       -2.9653772693       -3.1920391522
 H         1.8020976350       -3.6792950428       -3.9550367776
 H         3.0688445751       -0.8744065471       -4.1656494841
 H         1.6590271758       -1.1488009542       -3.3719173962
 H         0.7459028134        2.7723768313       -5.9402488350
 H         1.3352035389        1.6376084607       -4.6542836451
 H        -1.6757455443        2.4499539151       -5.2393919834
 H        -0.5273063980        3.1065680373       -4.0158943627
 H        -4.1494819137       -1.5645225660       -3.4990125244
 H        -2.3628246455       -1.7215555130       -3.5494792096
 H        -2.3977654133       -0.8861803451       -5.9382473324
 H        -4.0841360784       -0.6931374304       -5.9283085007
 H        -2.4854830443       -4.2535228756       -4.0788519812
 H        -3.4268514312       -5.5890167399       -4.4981355864
 H        -2.4314301581       -6.1808295453       -2.3814671147
 H        -3.9554806052       -5.6358880988       -1.9345191252
 H        -3.9912475938       -3.7034936636        1.3891166670
 H        -2.8183241833       -4.2965883170        2.5204115583
 H        -5.2297787675       -6.1010614507        1.6571653628
 H        -5.3695565463       -5.0382008145        2.9846421312
 H        -3.5180352761       -8.8509563891        7.4601040855
 H        -2.5315284619       -7.9252300383        6.2663877453
 H        -3.2406387649       -9.3326371898        5.8243899712
 H        -7.0186736483       -8.1610664282        4.6847895561
 H        -6.7696436113       -7.0881822252        3.2919595042
 H        -6.8486911299       -6.4839745288        4.9762630028
 H        -3.4622655180       -8.9704286188        3.4264614825
 H        -4.8600230010       -8.6603538365        2.4400068903
 H        -5.0218709442       -9.7284726570        3.6964572831
 H        -0.3510628740       -5.9564604683       -1.2909814444
 H        -1.3671448721       -6.9320290691       -0.3838081337
 H         0.0055612627       -6.0988663426        0.5734788179
 H        -0.3126042946       -3.0130482971       -0.0562834232
 H        -0.2283341262       -3.9600410348        1.4252889371
 H        -1.6598728363       -2.9625318799        1.2064683706
 H        -6.8031320746       -2.5980742708       -6.4155738855
 H        -5.6583428350       -1.6222815712       -5.6969014450
 H        -6.7625990779       -2.5592619418       -4.6945935110
 H        -5.8459465146       -5.4182081716       -5.7177790108
 H        -4.2259505484       -5.3292405104       -6.2633496728
 H        -5.5996712499       -4.7713740741       -7.2540366042
 H        -2.6460629164        0.1975749897       -0.5913140042
 H        -1.2009532550        0.9432202729       -0.8632784592
 H        -1.6218100170       -0.6503590213       -1.5901877053
 H        -2.9403047799        3.1171129241       -3.3138763505
 H        -2.1762341505        2.9673341686       -1.8014743306
 H        -3.8340334187        2.2679186092       -1.9992889338
 H         2.9868270215        1.7801872031       -6.7555907387
 H         4.1050389321        0.3283109671       -6.4997265211
 H         3.1514610955        1.0430522552       -5.1015572788
 H         2.7600401235       -1.3986690461       -7.9868663358
 H         2.3190981812        0.1559830338       -8.6486952275
 H         1.0126986050       -0.8426632611       -8.3771277887
 H         5.1933821893       -6.2388604497       -4.2727862366
 H         3.6233896870       -5.6022931925       -3.6524994110
 H         5.0513966462       -4.6481653396       -3.4729782349
 H         5.1975729153       -3.9836379419       -7.3394321600
 H         5.9713832651       -5.5231554970       -6.6737464022
 H         6.2658644978       -3.9772713895       -5.8758987354
 H        -1.1013788927       -7.0988143410       -9.0259052781
 H        -2.1675884447       -6.1620241412      -10.0260202578
 H        -1.6791487387       -5.6105414714       -8.4116116704
 H         1.1892465790       -6.9603362597      -10.1913632175
 H         1.3261045223       -5.6287426078      -11.3630209298
 H        -0.0126771678       -6.6792287559      -11.5463138515
 H        -3.4228159651        0.6159408884       -9.7675462882
 H        -4.3491319188       -0.8359709965       -9.6579278732
 H        -4.9950006693        0.5587637588      -10.5349075038
 H        -4.4496796515       -2.3637157453      -12.1230105503
 H        -4.0156502825       -1.3888380882      -13.4922557547
 H        -5.1900222796       -0.8807979872      -12.5655163384
 H        -4.1354298951        4.1359561145      -17.6596778099
 H        -3.1947307819        2.7390418016      -17.3668506009
 H        -3.3811089131        3.8900433019      -16.1234070602
 H        -6.1041934958        4.1540460463      -15.2486727648
 H        -6.9354887318        2.6334665028      -15.1635339134
 H        -7.1601778238        3.4682923282      -16.5829942975
 H        -7.8888606750       -3.2841950444      -18.3470417846
 H        -9.4805632564       -2.6294686631      -18.6434370403
 H        -8.4303912808       -1.9423984843      -17.3580372222
 H        -7.2047340362       -3.0867920641      -20.7725894364
 H        -7.0858876925       -1.4850572524      -21.4579061200
 H        -8.7843998263       -2.3915258148      -21.4123473446
 H       -11.4406761502        3.5345009850      -22.2310868571
 H       -12.4379814457        2.1908533046      -22.6444274129
 H       -11.7446770044        3.2658549644      -23.9243185981
 H       -11.0471497076        1.1960419363      -25.2606683362
 H       -11.6454012715       -0.0241912400      -23.9367821402
 H        -9.9882201605        0.0223859491      -24.3859774479
 H        -4.3807999990        2.8440399709      -25.5233476136
 H        -3.1999342506        3.9222071458      -24.6462715079
 H        -4.9084906696        4.3797495825      -24.9800390573
 H        -3.7258691400        1.4109114223      -22.1343045984
 H        -2.7056587377        2.2581846710      -23.0879163810
 H        -3.6595651768        0.9048510652      -23.8007936236
 Na       -6.4592494464        1.7920540496      -20.5345911187
 Na       -0.7060133142       -2.1095092520       -7.8358289167
