232

 C        -4.0299185807        5.3286429980      -22.2462141688
 C        -4.7078163587        3.9015249673      -22.1656584279
 O        -5.3166547429        3.5721812452      -21.1701115532
 C        -4.7565000098        2.9390174662      -23.3010650395
 C        -6.2598752759        2.3407529062      -23.6307796317
 O        -6.7154191707        1.6027854923      -22.7129799610
 C        -6.9674242904        2.2839221219      -24.9452066620
 C        -8.3446193537        1.6377476824      -24.6766344123
 C        -9.1723302546        2.5269752978      -23.7417867804
 O        -8.8803322476        3.6497754929      -23.4311799433
 C       -10.5360717013        1.8259290135      -23.1832737097
 C       -10.1101834014        0.8844085979      -21.9360241065
 O        -9.1689228830        0.1380537717      -22.0234347921
 C       -10.8944544320        0.7491158847      -20.6201431781
 C       -10.2596214212       -0.3206978082      -19.7195538510
 C        -8.7723300365       -0.1897988412      -19.6653953024
 O        -8.2591750500        0.8870648617      -19.4588926143
 C        -7.8552833712       -1.4889176477      -19.6586336919
 C        -6.3534646730       -1.0253740326      -19.2574262559
 O        -5.6099693226       -0.5082221570      -20.0797191463
 C        -5.8868584870       -1.1553727678      -17.7699308166
 C        -4.8483778081       -0.0086715169      -17.5641898255
 C        -5.4618313541        1.4438349298      -17.4234690916
 O        -6.0750659506        1.9686978621      -18.2815764235
 C        -5.0569130074        2.5011447087      -16.2479983588
 C        -4.6149968561        1.8015172295      -14.9479185135
 O        -4.9779456705        0.6494755213      -14.7362408556
 C        -3.6736904599        2.6727450530      -13.9464045457
 C        -3.8284367681        2.0738892028      -12.5050673288
 C        -2.9284308267        0.7967004125      -12.3542559536
 O        -1.9267709793        0.7705046916      -13.0398295134
 C        -3.3745783897       -0.3811506862      -11.4200737142
 C        -2.1232201862       -1.1500737898      -10.9324176034
 O        -1.7248222879       -1.0935087328       -9.7856297250
 C        -1.1665709242       -1.8841321237      -12.0390154318
 C        -0.3234960955       -2.9253276156      -11.3227595841
 C        -1.2034685054       -4.0831020499      -10.7341186489
 O        -2.3693362195       -4.3033920320      -11.0955449573
 C        -0.3534069527       -5.2686800635       -9.9162877519
 C         0.6201569343       -4.7415750161       -8.9338935842
 O         0.8523568822       -3.5351811060       -8.9354456310
 C         1.3189208247       -5.6693291135       -7.9806489807
 C         2.6883313191       -5.0882603418       -7.7027487971
 C         3.1785117477       -5.4651888668       -6.3088624960
 O         2.5868258468       -6.3223428408       -5.7266587131
 C         4.3481879361       -4.7755120706       -5.5658901107
 C         3.6862642226       -3.2664177002       -5.4751506740
 O         3.9101654568       -2.5069694913       -6.3676999517
 C         2.6824210861       -2.9631837878       -4.2822346201
 C         2.1458253887       -1.5337898193       -4.2991240906
 C         1.4772256791       -1.3212973902       -5.6479167568
 O         0.7081581216       -2.1747203012       -6.0551767130
 C         1.9008794856       -0.0949253159       -6.5261751085
 C         0.5113343794        0.7509983073       -6.4739840310
 O        -0.5389884874        0.4721362612       -6.9901214480
 C         0.5540429596        1.9884194122       -5.5736720879
 C        -0.7946903248        2.1380080606       -4.7999758159
 C        -1.0227306575        1.1033230419       -3.7325200441
 O        -0.2084926868        0.2122307745       -3.5426381197
 C        -2.2708205121        1.2380452458       -2.8586618467
 C        -3.3619958051        0.4733379426       -3.6624264038
 O        -4.3965074605        0.9956758375       -4.0919569034
 C        -3.2149447724       -1.0562333282       -3.8576156551
 C        -3.1693550865       -1.2958886065       -5.3656450304
 C        -3.3838513635       -2.7678889632       -5.8801674321
 O        -2.4890648055       -3.2428721647       -6.5970016246
 C        -4.7643226872       -3.5281035665       -5.4162586869
 C        -4.6060379760       -4.0401979843       -3.9328855512
 O        -5.3154821794       -3.8024577698       -2.9720972295
 C        -3.2954457113       -4.7726651615       -3.7670496651
 C        -3.0368163807       -5.1889075470       -2.3065797382
 C        -2.1403846090       -4.3554602081       -1.5057653622
 O        -1.7276375102       -3.2924896875       -1.9396072865
 C        -1.6649939780       -4.9593523616       -0.0140702759
 C        -2.8806392377       -5.4689262543        0.8449935268
 O        -3.5004597500       -6.4801738193        0.4063282953
 C        -3.5321252536       -4.6866891272        1.9815127067
 C        -4.7310624225       -5.4409138950        2.5903464825
 C        -3.9770753409       -6.6053981836        3.4219577797
 O        -2.8409816085       -6.5021941442        3.7743653081
 C        -4.8132080568       -7.7838654598        4.1835333262
 C        -4.4012084017       -7.5829860051        5.6666235540
 O        -4.7759916160       -6.6434581487        6.3250522373
 C        -3.5480039405       -8.7274596202        6.1430700686
 C        -6.3544650105       -7.5148604588        4.0190065085
 C        -4.4959217273       -9.0681852705        3.5381635862
 C        -0.6453180831       -6.1322746807       -0.3821289943
 C        -0.9524396340       -3.7667881654        0.7230356721
 C        -6.0077623972       -2.5683302152       -5.5385458910
 C        -5.1078368762       -4.7989831377       -6.3027648041
 C        -2.1012458121        0.4761985498       -1.5497920565
 C        -2.7730535305        2.6814147989       -2.6493693784
 C         3.2598332874        0.5938450292       -6.0831480092
 C         2.1883607791       -0.3046406104       -8.0982397178
 C         4.6173187007       -5.3736756287       -4.1217731819
 C         5.6668604561       -4.7028582554       -6.4435330778
 C        -1.3845672497       -6.3364643342       -9.2544160761
 C         0.4887246281       -6.0045165287      -11.0771326411
 C        -4.2021786187        0.1160081386      -10.2455709901
 C        -4.2092548808       -1.2506598324      -12.4052257115
 C        -4.1702749901        3.5798133352      -16.9148268095
 C        -6.3425397071        3.3439762210      -15.9095040488
 C        -8.4013896739       -2.5088881997      -18.6577958424
 C        -7.7069189871       -2.2690688406      -21.0209040958
 C       -11.5347315885        2.9161283325      -22.8631839886
 C       -11.0932578616        0.7676629237      -24.1337400427
 C        -4.3197547548        3.6053993749      -24.6409564643
 C        -3.8089142223        1.7669729803      -22.9940754734
 H        -2.9830830964        5.1417316822      -22.4200275306
 H        -4.1724990311        5.8517694451      -21.3207947383
 H        -4.4692714295        5.8059108165      -23.0330464077
 H        -6.4204990419        1.6167762610      -25.5992489261
 H        -6.9913189268        3.2388418428      -25.5288646785
 H        -8.2658471261        0.6551221118      -24.1579917177
 H        -8.7285130756        1.4018243407      -25.6478948664
 H       -11.9249201394        0.5260171304      -20.9066175632
 H       -10.9848926756        1.7163397043      -20.1054044373
 H       -10.4658612686       -1.2420402542      -20.3210028766
 H       -10.6011779304       -0.2290567885      -18.6874709896
 H        -5.5076211333       -2.1258898383      -17.5599980376
 H        -6.8229112654       -0.9902019744      -17.2778092870
 H        -4.3009873111        0.0317583561      -18.5241832474
 H        -4.1560886513       -0.2761024246      -16.7529249121
 H        -3.9823545435        3.7112855734      -14.0890014276
 H        -2.6043369180        2.5844359243      -14.2845155226
 H        -4.8788692771        1.7049889248      -12.3340778984
 H        -3.6536362397        2.8422549049      -11.7553277032
 H        -0.3795243898       -1.2313259918      -12.4699941157
 H        -1.7072657718       -2.4129984133      -12.7547489539
 H         0.3162118718       -2.4105294252      -10.5977106648
 H         0.2837788804       -3.4572806237      -11.9864943387
 H         1.3916032528       -6.7920658661       -8.3867202516
 H         0.7381137554       -5.7607925497       -7.1019202805
 H         2.7048566920       -4.0017676196       -7.7745440886
 H         3.4585798567       -5.4749604533       -8.4582652262
 H         3.1886548023       -3.2166691833       -3.3613626071
 H         1.7768083050       -3.5688947081       -4.5099769825
 H         2.8297731000       -0.7934305521       -3.9925435579
 H         1.3978375143       -1.3626768504       -3.5061197326
 H         0.5816896628        2.8280784755       -6.2957769530
 H         1.4807055663        1.9161454871       -4.9588603275
 H        -1.6317634632        2.0999800769       -5.4804010219
 H        -0.9488254520        3.0178133531       -4.3073032573
 H        -4.1892336199       -1.4130778257       -3.5594627416
 H        -2.4908360095       -1.4348388437       -3.1483439131
 H        -2.2728683612       -0.7788673209       -5.7510550980
 H        -3.9223684445       -0.5749198237       -5.7131300244
 H        -2.4339478140       -4.1092445154       -4.0401780751
 H        -3.2805849276       -5.5093910571       -4.5362365114
 H        -2.5590007862       -6.1274994799       -2.4253182274
 H        -4.0116840963       -5.4570640944       -1.7974349907
 H        -3.8994038158       -3.7204388932        1.6453440404
 H        -2.8496301487       -4.5013926215        2.8159489219
 H        -5.4598742332       -5.7220707027        1.8702981696
 H        -5.3296438330       -4.8435970113        3.3365929448
 H        -3.2467331960       -8.3898787107        7.1419071586
 H        -2.6560746003       -9.0680984644        5.6223122223
 H        -4.1334750855       -9.6286853009        6.3263886813
 H        -6.8491184437       -8.3770744054        4.5068776058
 H        -6.5912718715       -7.3766698171        2.9887906797
 H        -6.7007985270       -6.6199384574        4.5599800406
 H        -3.4738291529       -9.2285598158        3.3810863324
 H        -4.9332111224       -9.0752599820        2.5382793895
 H        -4.8333025384       -9.9834931670        4.0693203194
 H         0.0593082697       -5.8133951400       -1.1723673372
 H        -1.2976349397       -6.9043843713       -0.7952798465
 H        -0.1822097509       -6.2761480482        0.5323553804
 H        -0.1106399314       -3.5115809009        0.0964768615
 H        -0.5871918826       -3.9618199888        1.6891429389
 H        -1.5593864933       -2.9253763193        0.7895924010
 H        -6.2839317849       -2.5204258848       -6.6133308917
 H        -5.9057429301       -1.4846850164       -5.2481118942
 H        -6.8189854553       -3.0254475485       -5.0604429407
 H        -5.8524334222       -5.5212214053       -5.8354884180
 H        -4.2139308637       -5.3574500261       -6.5668200518
 H        -5.5024006134       -4.4555543219       -7.2582017855
 H        -3.0166881141        0.3967546520       -0.9406856880
 H        -1.4543718723        1.0603940705       -0.8669062155
 H        -1.7159874771       -0.5431977463       -1.5299588262
 H        -2.9363134281        3.0961365175       -3.6955959049
 H        -1.8878059182        3.2852502445       -2.2654114049
 H        -3.7080059611        2.7930941037       -2.1663264280
 H         3.4015190666        1.4822562371       -6.6873792029
 H         4.0775824449       -0.0582762696       -6.1487090173
 H         3.0452444045        0.8384988429       -5.0458584317
 H         2.9876932433       -1.0410441981       -8.2148040286
 H         2.5392655863        0.6729121196       -8.5002523282
 H         1.1856653990       -0.3878632907       -8.4836725753
 H         4.8699677719       -6.4487165811       -4.2675836870
 H         3.8925570981       -5.3225540701       -3.3465743161
 H         5.5275366060       -4.8858783707       -3.8063261972
 H         5.5971268834       -3.9194905881       -7.1441724861
 H         5.9346374370       -5.6872670308       -6.8725150981
 H         6.4808069796       -4.5229752813       -5.7971670370
 H        -0.9062741323       -7.3403336167       -8.9532326505
 H        -2.2230138096       -6.4976917697       -9.8933684061
 H        -1.6232325217       -5.8325806559       -8.2792556393
 H         0.9858402659       -6.8434204765      -10.6275916137
 H         1.1893801741       -5.2075017265      -11.4235437936
 H        -0.2184428593       -6.3073146542      -11.9839518612
 H        -3.5406767465        0.7750358813       -9.5771058463
 H        -4.6881894957       -0.5840816818       -9.6089786973
 H        -5.0035658436        0.7371210247      -10.6296063917
 H        -4.6669847982       -2.1197947885      -11.8636136203
 H        -3.5139978958       -1.7657606235      -13.1614382362
 H        -5.0126268909       -0.8195782975      -13.0174876634
 H        -4.6740442622        4.0210424773      -17.7572816475
 H        -3.1964807903        3.2110376147      -17.2462906486
 H        -3.9405480859        4.4394694098      -16.2127375678
 H        -6.0529762714        3.9535206217      -15.0049092164
 H        -7.2318517565        2.6855250399      -15.6799552454
 H        -6.6847341798        3.9131370315      -16.8000942463
 H        -7.6036183987       -3.2634257135      -18.4522252359
 H        -9.3212882956       -3.0367398140      -18.9865956139
 H        -8.6840230182       -2.0871254072      -17.7496671396
 H        -7.3194327814       -3.2299327570      -20.8586746200
 H        -7.1003380769       -1.6704974918      -21.6942758489
 H        -8.6157061317       -2.5007172471      -21.3735038581
 H       -11.0736660539        3.5705310429      -22.1820133802
 H       -12.5016348841        2.7160925698      -22.4381879022
 H       -11.7353958648        3.6005090379      -23.7344976199
 H       -11.2127484730        1.2767562219      -25.0321295026
 H       -12.0433908304        0.4415038914      -23.6785431985
 H       -10.4848935331       -0.1708593084      -24.2614315186
 H        -4.2314366694        2.8553830778      -25.3970376177
 H        -3.4521356769        4.2182714258      -24.5166393583
 H        -5.1277575421        4.3182562145      -25.0396470534
 H        -4.1336099108        1.1050897452      -22.1639274288
 H        -2.6770628305        1.8749970133      -22.8449866392
 H        -3.9343729915        1.1329349870      -23.8548048216
 Na       -6.3382669627        1.4629089932      -20.4427853691
 Na       -0.8087191431       -1.9449030445       -7.9880748447
