232

 C        -3.8265278431        4.9452332407      -22.3030694738
 C        -4.7139222327        3.6977938483      -22.1099903575
 O        -5.3592783731        3.4177716734      -21.1193339255
 C        -4.8010895696        2.7804422980      -23.3536797158
 C        -6.2896511447        2.0994058500      -23.4980174086
 O        -6.5817584347        1.1391559645      -22.7761628814
 C        -7.1236399359        2.2720533359      -24.7398773142
 C        -8.5093938227        1.7209974751      -24.7918042379
 C        -9.3459043420        2.4233694718      -23.6794453331
 O        -8.8084011968        3.3206885438      -23.0943618292
 C       -10.7784449873        1.8807238506      -23.1018358506
 C       -10.2726505675        0.8232741464      -22.0317641296
 O        -9.2584794419        0.1688728887      -22.1958614564
 C       -10.9487928666        0.6124299096      -20.6212732028
 C       -10.3149062440       -0.5690836414      -19.8446758462
 C        -8.7543551365       -0.2643889983      -19.6760002722
 O        -8.2779705027        0.8205187160      -19.5492987732
 C        -7.8200779155       -1.5685026544      -19.6983837763
 C        -6.3720466044       -1.1361778704      -19.4407101265
 O        -5.6249673761       -0.9440650414      -20.3931184724
 C        -5.9340934819       -0.9182155548      -17.9935637269
 C        -4.8173249773        0.0425217267      -17.5966813773
 C        -5.2511182741        1.4971301747      -17.4359356821
 O        -5.9407201850        2.0273160004      -18.2923331473
 C        -5.0741881383        2.4569296053      -16.2426163970
 C        -4.5553920169        1.8128496526      -14.8204760702
 O        -4.8571234160        0.6975984608      -14.4709919884
 C        -3.8390649325        2.7823720300      -13.8069882486
 C        -3.9202711835        2.1183981542      -12.3390895453
 C        -2.9729561002        0.9339220743      -12.2587881210
 O        -1.9075836805        0.9428149308      -12.8638436465
 C        -3.5082543627       -0.2799398109      -11.3206752397
 C        -2.2334191047       -1.0107675986      -10.8312308013
 O        -1.8715666764       -1.0140589962       -9.6603659578
 C        -1.4209649212       -1.7628490902      -11.9191340307
 C        -0.5285140253       -2.8582531508      -11.3961206807
 C        -1.2344236588       -4.1032416024      -10.9327832120
 O        -2.4707205345       -4.2024186076      -11.0009633764
 C        -0.4155598950       -5.2632039714      -10.3114890599
 C         0.4590535211       -4.7904510014       -9.0389613179
 O         0.3180195751       -3.6701558805       -8.6273962309
 C         1.4511577097       -5.6887301989       -8.3164922320
 C         2.6285263505       -4.9558681698       -7.5964344987
 C         3.0832939281       -5.5084491274       -6.2166189110
 O         2.4238403329       -6.2125730633       -5.5130617584
 C         4.3954232634       -4.7700821686       -5.6643890714
 C         3.9643402753       -3.3035308441       -5.5694260352
 O         4.2079498563       -2.5432054597       -6.4405214175
 C         3.0789451881       -2.9746848824       -4.2818245572
 C         2.1761940264       -1.7456062671       -4.3992691260
 C         1.5723901999       -1.3586590489       -5.7445132441
 O         0.7518826258       -2.0990568407       -6.2276867461
 C         1.8837117786       -0.0254881591       -6.5696118442
 C         0.4860472221        0.8741267359       -6.4905740178
 O        -0.4310600558        0.6006756370       -7.2217078488
 C         0.4131334511        2.1638367658       -5.6778638375
 C        -0.9810752052        2.3336365861       -5.1074657990
 C        -1.0981585330        1.3677291330       -3.8153669639
 O        -0.2464951366        0.5031094319       -3.6358237515
 C        -2.3454388293        1.4750234998       -2.8100220534
 C        -3.5366515295        0.7164164709       -3.5664693519
 O        -4.6147623726        1.2910983564       -3.7119266877
 C        -3.2907313305       -0.7600575680       -3.8283436246
 C        -3.1172380763       -1.0236001502       -5.3282680094
 C        -3.1873090303       -2.4666925369       -5.7702879659
 O        -2.3836662103       -2.8790980850       -6.5835953289
 C        -4.4666105197       -3.4089818413       -5.3905045507
 C        -4.2440937515       -4.0957827080       -3.9309071616
 O        -4.9899604378       -3.8024682805       -3.0223217739
 C        -3.1065592058       -5.0083114019       -3.6841278719
 C        -3.0331956085       -5.3632897883       -2.1749917758
 C        -2.0326216319       -4.5201327575       -1.4258022134
 O        -1.3767502867       -3.6059725573       -1.8863217434
 C        -1.6189178931       -5.0534620339        0.0947532287
 C        -2.9598329500       -5.5252221908        0.7875489099
 O        -3.5464837529       -6.5973939510        0.4695337856
 C        -3.7052002617       -4.6832309045        1.8240543977
 C        -4.3353764767       -5.4849496141        2.9620383200
 C        -3.7481050672       -6.8608261861        3.2828587303
 O        -2.5784623156       -7.0067028785        3.1047931913
 C        -4.6715428265       -7.9124620689        3.8993101909
 C        -4.4094326583       -7.7104603887        5.4451500514
 O        -4.7747203702       -6.7587738687        6.0895478410
 C        -3.7344869515       -8.9546259852        6.2628359309
 C        -6.1766557583       -7.6327615402        3.7375552534
 C        -4.3256033140       -9.2696144532        3.1847225697
 C        -0.6589786373       -6.3736961937        0.1668993189
 C        -0.9511351906       -3.8529318580        0.8829490666
 C        -5.7492916124       -2.5711465147       -5.3717383913
 C        -4.6309525500       -4.6447092034       -6.4163755087
 C        -2.0468182014        0.8452391323       -1.5038919645
 C        -2.8833313861        3.0544476928       -2.5960817186
 C         3.0405085686        0.8139177874       -5.9416823692
 C         2.2621707704       -0.4099704034       -7.9952825714
 C         4.8278773774       -5.3107776539       -4.2582116185
 C         5.5853213680       -5.0675999166       -6.6945793938
 C        -1.5328435128       -6.1506956485       -9.6007718614
 C         0.4765964001       -5.9781021493      -11.3323191988
 C        -4.1962940862        0.2711440599      -10.1388839163
 C        -4.5011039225       -1.2493520916      -12.0576880389
 C        -3.9824810013        3.5103638622      -16.6377564593
 C        -6.4514096117        3.1671895329      -15.9086104216
 C        -8.2942336694       -2.6027708823      -18.6701580452
 C        -8.0676171615       -2.0914957134      -21.1302107623
 C       -11.4410526354        3.0417721502      -22.3904831693
 C       -11.6860753732        1.2353181972      -24.1128865221
 C        -4.5003340818        3.5376214972      -24.6709642811
 C        -3.6181965623        1.7473985190      -22.9493456546
 H        -2.9349760990        4.7157328867      -22.9098018510
 H        -3.3714474747        5.1796299995      -21.2723740189
 H        -4.4036477290        5.7835912061      -22.7433476806
 H        -6.5637113180        1.6715633947      -25.5180114630
 H        -7.0216049274        3.3793181359      -25.0037561691
 H        -8.3807573870        0.5998276814      -24.4696687151
 H        -9.0273397401        1.7718353789      -25.7711072469
 H       -12.0558797615        0.4409415155      -20.5606867984
 H       -10.7512396957        1.5169018309      -20.0533044824
 H       -10.3693985699       -1.3871809159      -20.5688482517
 H       -10.8855245278       -0.6279677856      -18.9612894433
 H        -5.7781298716       -2.0443436358      -17.6556396476
 H        -6.8886395954       -0.6713279857      -17.4623782363
 H        -4.0471452871        0.0918436624      -18.3150714577
 H        -4.3575084688       -0.3680122131      -16.6599251100
 H        -4.4515528497        3.7042373341      -13.9151310829
 H        -2.8866291087        2.9171686618      -14.2485282574
 H        -4.9719967862        1.7753810009      -12.1330351492
 H        -3.6424518582        2.8054370901      -11.5628614824
 H        -0.6209818938       -0.9797123975      -12.1798471911
 H        -1.9333347493       -2.1244092103      -12.8272240106
 H         0.2593796899       -2.5485246815      -10.6562949393
 H        -0.1387882115       -3.2833222734      -12.2897250693
 H         1.7288302315       -6.5751478006       -8.8864144984
 H         0.9274527652       -6.1402322456       -7.5764014856
 H         2.4588754247       -3.9176961327       -7.3402548588
 H         3.4957459853       -4.8695029907       -8.2449837105
 H         3.6585633675       -2.8070696069       -3.3562001843
 H         2.4149536011       -3.8479016086       -4.1542961456
 H         2.7365961836       -0.8794273148       -3.9895079538
 H         1.3334008059       -1.8601302898       -3.6875283959
 H         0.6929698756        2.9622287258       -6.4456516523
 H         1.1337396939        2.1658905686       -4.9233509947
 H        -1.8171544198        2.1433239007       -5.7937291574
 H        -1.2494562621        3.3573780601       -4.7317612173
 H        -4.1848262790       -1.3097507039       -3.4712406120
 H        -2.4606600973       -1.1979286099       -3.1678905693
 H        -2.1639579929       -0.4769256438       -5.6130618315
 H        -3.7903688856       -0.4854085986       -5.9274058173
 H        -2.1969034944       -4.4812266389       -4.0308476189
 H        -3.1721706856       -5.8635380272       -4.3266390681
 H        -2.8335821610       -6.3796703669       -2.1651216277
 H        -4.0346203177       -5.3328061527       -1.7560481666
 H        -4.6195201205       -4.4863836014        1.2466836945
 H        -3.2893410239       -3.7861684600        2.2538327293
 H        -5.4143161210       -5.6258108129        2.6717527362
 H        -4.3297735866       -4.9321840589        3.9036136702
 H        -2.8341932785       -8.8153381326        6.7898458280
 H        -3.4746952023       -9.7329492972        5.5486647297
 H        -4.4602160413       -9.5051543949        6.8934468313
 H        -6.6901368665       -8.4926672358        4.1650165321
 H        -6.4926584383       -7.4104778729        2.7274317095
 H        -6.3177137344       -6.7261393099        4.3571156148
 H        -3.2689183061       -9.5632686813        3.1499758425
 H        -4.5824582356       -9.1340483074        2.1315208103
 H        -4.8588407371      -10.1380112863        3.6088183318
 H         0.2505771133       -6.0025124628       -0.2428765973
 H        -1.2071219318       -7.1053653005       -0.4543674138
 H        -0.4151621508       -6.5679225690        1.2178410015
 H        -0.0290534558       -3.4118379500        0.3895616414
 H        -0.6515850852       -4.1883047887        1.9314748203
 H        -1.6568127311       -3.0337307023        1.0372161368
 H        -5.6090347041       -1.5221402832       -5.6112513561
 H        -6.3151963146       -2.6408492763       -4.3914561949
 H        -6.4140292901       -3.0010132061       -6.0479855628
 H        -5.6334496410       -5.0206534160       -6.1932883943
 H        -3.9534715232       -5.4266202098       -6.3488695023
 H        -4.5752776916       -4.3630875443       -7.4687317165
 H        -2.9402487433        0.7128436384       -0.9364997482
 H        -1.2831334937        1.3593012813       -0.9009167339
 H        -1.5409911275       -0.1214266101       -1.4966327610
 H        -3.3717147318        3.2751071158       -3.5618711846
 H        -2.1059641750        3.7309707495       -2.3152017141
 H        -3.7469556688        3.1119027580       -1.9774235633
 H         3.3804977866        1.4886024333       -6.7814148702
 H         3.8360712602        0.0878065422       -5.7924682383
 H         2.7434445032        1.2419184371       -4.9924635224
 H         3.2619540410       -0.8641264029       -8.0042476964
 H         2.2576415655        0.5002620866       -8.5063865764
 H         1.4102192092       -1.0714898303       -8.2568956647
 H         5.4278622572       -6.2207604778       -4.4111701000
 H         3.9403706767       -5.7203980923       -3.7069334977
 H         5.4049867249       -4.5807415535       -3.7260224128
 H         5.4056477980       -4.7495047358       -7.7525720289
 H         5.8104020355       -6.1134283496       -6.5557739009
 H         6.5127629127       -4.5109727591       -6.3782274841
 H        -1.0164922782       -6.8813476383       -8.9880929281
 H        -2.0372625346       -6.6006072449      -10.3771785666
 H        -2.1883009496       -5.5723753491       -8.9496364325
 H         0.7669128583       -6.7761283347      -10.7854769910
 H         1.1777219918       -5.3539985466      -11.7968622248
 H        -0.1277176186       -6.5410934684      -12.1029681394
 H        -3.6835177968        1.1126660469       -9.6658770317
 H        -4.2978213873       -0.4807868065       -9.3835854881
 H        -5.2470102407        0.5633760887      -10.2991274060
 H        -4.5704040228       -2.1997547743      -11.6431462797
 H        -4.1781580125       -1.4782015177      -13.0452410357
 H        -5.5111230515       -0.8647068835      -12.0143119102
 H        -4.0973960673        3.7457053043      -17.6760440336
 H        -2.9647356116        3.0933394671      -16.4400906698
 H        -4.0410044036        4.4753958384      -16.1631558103
 H        -6.2189664435        3.9504030352      -15.2584092556
 H        -7.1334950825        2.4984385278      -15.3654343826
 H        -6.8888885192        3.5108427852      -16.8421026797
 H        -7.7314985511       -3.6253113652      -18.7341981368
 H        -9.3251761694       -2.9090522045      -19.0232613726
 H        -8.4513358224       -2.2348444204      -17.7112514905
 H        -7.4240660694       -3.0257518905      -21.2645018422
 H        -7.7621928689       -1.2281349431      -21.8452571575
 H        -9.0431790652       -2.4443118062      -21.2799736270
 H       -10.7305685279        3.4256940711      -21.6445832172
 H       -12.3655072447        2.6549212672      -21.9034501439
 H       -11.9082611746        3.9230519963      -22.8929374956
 H       -11.9738504005        2.0733600313      -24.7459636346
 H       -12.5792665599        0.8458396020      -23.6120288337
 H       -11.1404846875        0.5089764936      -24.7358910159
 H        -4.8540619916        3.0082145139      -25.5409705732
 H        -3.4753826808        3.7986437053      -24.7983699695
 H        -4.9467883924        4.5653360880      -24.6775197972
 H        -3.7637899959        1.1061860864      -22.0757487903
 H        -2.7140508524        2.3360224477      -22.8132435727
 H        -3.2818374791        1.0961585884      -23.7010235229
 Na       -6.0982615512        1.4740197533      -20.5994542034
 Na       -1.1447439206       -1.6839005715       -7.7050944566
