232

 C        -3.9234980683        4.8672109237      -22.2231579558
 C        -4.7772361947        3.6266316564      -22.2186719981
 O        -5.3374573356        3.4612378500      -21.1506127581
 C        -4.8019615124        2.6411492380      -23.4683638713
 C        -6.1683946768        1.8464345509      -23.6122668697
 O        -6.6337949284        1.0900871297      -22.7404215740
 C        -7.1000005296        2.3441191417      -24.7545375721
 C        -8.4716632751        1.7195789638      -24.6199289131
 C        -9.3559556699        2.4867102387      -23.4889376736
 O        -8.8184530052        3.4250557107      -22.9338360300
 C       -10.7675811976        1.9364084038      -22.9726617426
 C       -10.2830257191        0.8317142411      -22.0427407930
 O        -9.4153084118        0.0940014994      -22.4366415236
 C       -10.9361839643        0.5003727018      -20.6602846606
 C       -10.1131279376       -0.5187841103      -19.8144199311
 C        -8.6802033983       -0.2614173022      -19.8218749376
 O        -8.2305220714        0.8522566191      -19.6137849098
 C        -7.8526285925       -1.6336945444      -19.8028461453
 C        -6.3525483170       -1.1450158022      -19.3787835166
 O        -5.5764004825       -0.8693438217      -20.2734416648
 C        -6.0485427363       -0.9059272027      -17.8704781684
 C        -4.8547342193        0.0267840306      -17.6911557099
 C        -5.3154208200        1.4772061162      -17.4613360114
 O        -5.7568586776        2.0806741122      -18.3577664416
 C        -5.0302151543        2.4251689978      -16.1045360618
 C        -4.6284796188        1.7786943181      -14.7176885317
 O        -4.8368733274        0.6070610798      -14.5038344039
 C        -3.9598768384        2.7363813239      -13.7380779023
 C        -4.0719791042        2.1413516671      -12.3399977342
 C        -3.0960178592        0.9334807111      -12.2182246263
 O        -2.0170038394        0.8763341208      -12.7712285796
 C        -3.5217184366       -0.1911096091      -11.2323702673
 C        -2.2619528002       -1.0204095703      -10.8560759987
 O        -1.9716231231       -1.0890776130       -9.6884406011
 C        -1.4386159775       -1.7200149339      -11.9953381700
 C        -0.4487464139       -2.7567231092      -11.4586245251
 C        -1.2459272760       -4.0588161394      -10.8888381189
 O        -2.4372364771       -4.1191251979      -10.9536085939
 C        -0.4794206176       -5.3797187287      -10.2220400286
 C         0.4171406408       -4.7978634988       -9.0132959779
 O         0.1072394639       -3.6928885712       -8.5529152393
 C         1.4806559204       -5.7714630706       -8.3667294182
 C         2.5200401798       -4.9184010703       -7.7058317824
 C         3.0691188039       -5.4433244405       -6.3082499011
 O         2.3547028219       -6.1815962498       -5.6541167180
 C         4.3585073786       -4.8810803064       -5.7357857716
 C         3.9594445574       -3.3307707918       -5.5184056947
 O         4.3156693567       -2.4639462547       -6.3113114673
 C         3.0668211951       -2.8975162255       -4.2964763984
 C         2.3205964620       -1.4976933608       -4.3087117967
 C         1.5612057974       -1.3367307734       -5.6499123654
 O         0.8617880144       -2.2298388182       -6.1571728808
 C         1.7963567061        0.0268844151       -6.5207922622
 C         0.4535045663        0.8933793826       -6.5461651943
 O        -0.4572505449        0.4648860594       -7.2091684704
 C         0.4336009163        2.1144871603       -5.6815993952
 C        -1.0019369113        2.3481572507       -5.0776936746
 C        -1.1423393666        1.5561186811       -3.8444537293
 O        -0.3974049032        0.6156998196       -3.6664548146
 C        -2.3351959996        1.6249254070       -2.8667424841
 C        -3.5260934139        0.7848223058       -3.4070254915
 O        -4.5563237872        1.3936991579       -3.6598863589
 C        -3.3392264788       -0.7082267878       -3.7795864406
 C        -3.2165472203       -0.9417342030       -5.2945507197
 C        -3.2897938861       -2.4383555443       -5.7840354556
 O        -2.4032062098       -2.8975564639       -6.5281721206
 C        -4.4365919824       -3.3300518640       -5.3838785530
 C        -4.1304295759       -3.9954188494       -3.8963759583
 O        -4.9755683346       -3.7175387791       -3.0627374249
 C        -3.0011868256       -5.1378210875       -3.6723853220
 C        -2.8128764152       -5.5405781797       -2.0942699273
 C        -1.8050189778       -4.7465682974       -1.3432956882
 O        -1.3737415961       -3.7155338792       -1.7974522414
 C        -1.6133373379       -5.1201582325        0.1988825715
 C        -2.9906711491       -5.5733137735        0.8401366051
 O        -3.5390566398       -6.5998524522        0.4039472902
 C        -3.7060760557       -4.6045351162        1.8915321503
 C        -4.3399715019       -5.4706612266        2.9927911614
 C        -3.6538805920       -6.8837712764        3.1460596003
 O        -2.4866277928       -7.1095038037        2.8168732574
 C        -4.5512877660       -7.9367392324        3.8305850486
 C        -4.4097364522       -7.8519046078        5.3958923733
 O        -4.8011318017       -6.8387805182        5.9402419118
 C        -3.8652890807       -9.0135089892        6.2253273326
 C        -6.1338897184       -7.6682715851        3.7635980133
 C        -4.2085627950       -9.3564492350        3.1904108142
 C        -0.6924574651       -6.3351954058        0.3018787304
 C        -0.9811332009       -3.9605239487        0.9231648713
 C        -5.7219699984       -2.5517223955       -5.4699626761
 C        -4.5554007231       -4.4896285712       -6.4044416398
 C        -1.8933108064        1.0120196552       -1.5614619626
 C        -2.9247726823        3.0269127514       -2.6793304123
 C         2.9914108126        0.8986556219       -5.9429924717
 C         2.2755739697       -0.3783524017       -7.9088201458
 C         4.8642526779       -5.3247900896       -4.3760914667
 C         5.5130551381       -5.1490466383       -6.7722619714
 C        -1.5809991953       -6.2456480287       -9.6897835206
 C         0.4929300479       -5.9316306151      -11.2696997919
 C        -4.1816897976        0.4424320343       -9.9682744095
 C        -4.4335987171       -1.1287882374      -12.0829894017
 C        -4.0472308252        3.4692500841      -16.6286126617
 C        -6.3211961454        3.1960384367      -15.8808869791
 C        -8.3225854352       -2.6413699845      -18.6825221284
 C        -7.9840968193       -2.3359046797      -21.1949565393
 C       -11.4443992124        3.2045689634      -22.3366287436
 C       -11.6973359416        1.3351394976      -24.0754763125
 C        -4.5962852795        3.4430922427      -24.7326474960
 C        -3.6567756469        1.6919402454      -23.1122785319
 H        -2.9383169265        4.6719736135      -22.7171470668
 H        -3.6689921572        5.1153562939      -21.2275068433
 H        -4.4359144685        5.6212591150      -22.7462425802
 H        -6.6418307925        2.1046651899      -25.7544076768
 H        -7.1630082869        3.4967721115      -24.6156650532
 H        -8.4208935887        0.6357182035      -24.2889268498
 H        -9.1678323380        1.8372644633      -25.4721272437
 H       -11.8911998128       -0.0074161705      -20.7014311981
 H       -11.0880631539        1.4277626083      -20.0870872764
 H       -10.1791832003       -1.4715150200      -20.3714411370
 H       -10.5820677361       -0.4534378052      -18.8317263122
 H        -5.9822589276       -1.9000055611      -17.4372606504
 H        -7.0253689650       -0.5190721083      -17.4549956077
 H        -4.3144523659        0.0785504141      -18.6409323425
 H        -4.1487362531       -0.3664557753      -16.9804496826
 H        -4.4605766168        3.6908105712      -13.8290025094
 H        -2.9156065068        2.7535979980      -14.1679763486
 H        -5.1285957268        2.0862786373      -11.9851593350
 H        -3.5090959652        2.8570833348      -11.7007306744
 H        -0.9042659179       -0.8687799819      -12.5188368994
 H        -2.0838202864       -2.2403897069      -12.6834473201
 H        -0.0678502379       -2.4248707729      -10.5162453651
 H         0.2552380876       -3.0194891140      -12.1433283003
 H         1.7892089944       -6.5680671535       -9.1074747071
 H         0.9981730902       -6.4106542663       -7.6872535376
 H         2.1690733809       -3.9221526837       -7.4852167508
 H         3.3426797877       -4.7038579675       -8.4358909480
 H         3.7180571528       -2.7818390913       -3.4120648230
 H         2.3027018474       -3.7046490189       -4.0811634621
 H         3.0069707829       -0.7078783936       -4.1048204012
 H         1.6118513192       -1.5430508763       -3.4494782251
 H         0.7640742208        2.9697840360       -6.2880012202
 H         1.2596868855        1.9564045897       -4.9135256403
 H        -1.8672265424        2.0289414513       -5.6497639325
 H        -1.2603169080        3.3076630619       -4.8784660312
 H        -4.2396433300       -1.2825659268       -3.4179845417
 H        -2.5336625862       -1.2385507717       -3.2820435945
 H        -2.1711311541       -0.6537503056       -5.4591439928
 H        -3.6942713449       -0.2362138189       -5.9721429354
 H        -2.1143230050       -4.7609142399       -4.1879649633
 H        -3.3219093281       -5.9861732965       -4.2251861967
 H        -2.7662819996       -6.5876074760       -2.0803846487
 H        -3.8060684611       -5.3894842614       -1.6693751648
 H        -4.4261615261       -4.0336347592        1.3863467121
 H        -3.0197927905       -4.0422547925        2.5057334375
 H        -5.3846067203       -5.5863145631        2.8901855878
 H        -4.1169389423       -4.9968912210        3.9988479426
 H        -2.8933436209       -8.7139149330        6.6469621279
 H        -3.5974363014       -9.8292985405        5.5784406912
 H        -4.4966081811       -9.4261153967        6.9537627108
 H        -6.6605458805       -8.6221518117        3.9693643133
 H        -6.4415400717       -7.3043008020        2.8095214026
 H        -6.3007233117       -6.9074286988        4.5111690736
 H        -3.2296445731       -9.7028588190        3.3092783524
 H        -4.3264893647       -9.1975399940        2.1287320554
 H        -4.8646827451      -10.1974214420        3.4973559476
 H         0.2611086461       -6.0891432475       -0.1992746797
 H        -1.3253629767       -7.1447434017       -0.0520878592
 H        -0.4159776006       -6.4026456875        1.2953733666
 H        -0.2490870519       -3.5509101986        0.1924304019
 H        -0.4433131320       -4.2098516327        1.7965798029
 H        -1.6622270217       -3.1392215028        1.1625669154
 H        -5.5836752121       -1.4720911405       -5.4590758593
 H        -6.4059742756       -2.8547890465       -4.6740088820
 H        -6.2439524606       -2.8779206495       -6.3333145959
 H        -5.4149102294       -5.0886476357       -6.1367479619
 H        -3.6667370479       -5.0965484340       -6.4022763058
 H        -4.6293447662       -4.1684764520       -7.3757705504
 H        -2.7316343864        0.8532517003       -0.8603540836
 H        -1.0210438128        1.3871549869       -1.0643580844
 H        -1.4742666071        0.0483461029       -1.7242097789
 H        -3.2546643987        3.4270065152       -3.6371256268
 H        -2.1982413481        3.6519775035       -2.0592093681
 H        -3.8438463784        2.9473139486       -2.1836762233
 H         3.0934411986        1.7607021016       -6.5969637415
 H         3.7933516852        0.2463577404       -6.1602797431
 H         2.9231826652        1.0703261603       -4.8377987570
 H         3.2284842424       -0.8801953302       -7.7575957142
 H         2.4587206893        0.6269570482       -8.3960009094
 H         1.5770785622       -1.0550566307       -8.3159946441
 H         5.6014872974       -6.1654583226       -4.4915229847
 H         4.1115850382       -5.7064382925       -3.7797863387
 H         5.4186809892       -4.4597928051       -3.9653984538
 H         5.1444405510       -4.7645840414       -7.6775185425
 H         5.7746032933       -6.2949267497       -6.8130599835
 H         6.3919506009       -4.6071789807       -6.5985979900
 H        -1.2041214854       -7.1809010592       -9.1931486134
 H        -2.1210650214       -6.4247171560      -10.5770556052
 H        -2.1819420403       -5.7090265684       -9.0111541863
 H         1.0102887210       -6.7765658793      -10.8742861084
 H         1.0340913942       -5.0743123432      -11.6763632991
 H        -0.0685885777       -6.4450299175      -12.0797759714
 H        -3.5416869148        1.2733920461       -9.5336833237
 H        -4.5591886862       -0.1329670476       -9.1848672341
 H        -5.0352564106        0.9679418418      -10.3234991699
 H        -4.4078505361       -2.1158920771      -11.5907423547
 H        -4.0371122492       -1.4044468288      -13.0722591379
 H        -5.4301710058       -0.8592543391      -12.0349760902
 H        -4.5774226343        3.8809750743      -17.4586517861
 H        -3.1205281801        3.0744247702      -16.8954148114
 H        -3.8688385030        4.3513248829      -15.9622060272
 H        -6.1775659338        4.1094874902      -15.1797982126
 H        -7.0677503128        2.5572020983      -15.4262953520
 H        -6.5552003758        3.5307636005      -16.8762567415
 H        -7.8837535054       -3.5449297593      -18.8684208157
 H        -9.4360262932       -2.9135353007      -18.5860516479
 H        -8.0704200419       -2.2195136655      -17.6791626059
 H        -7.5281691021       -3.2914140192      -21.1210544146
 H        -7.4689016544       -1.7041189654      -21.8549966002
 H        -9.0191548029       -2.4746807395      -21.5593828721
 H       -10.8461268768        3.5914815028      -21.5227798285
 H       -12.4860854915        2.9904240863      -22.0290746711
 H       -11.7052088402        4.1174723598      -22.9836799090
 H       -12.0894819178        2.1533314580      -24.6209336706
 H       -12.5583230808        0.8497245311      -23.5229057013
 H       -11.1152147293        0.6445852289      -24.7780452508
 H        -4.6433100639        2.9519492805      -25.6958442192
 H        -3.6352804894        3.9457426298      -24.7036749979
 H        -5.2463196813        4.3524298238      -24.7150977867
 H        -3.7559350612        1.0820126509      -22.2493372062
 H        -2.6257021607        2.0721569515      -23.1802087960
 H        -3.6140407508        0.9970515992      -23.9309996727
 Na       -6.2115311881        1.3752474849      -20.5096106265
 Na       -1.0387505201       -1.5485500107       -7.8809892840
