232

 C        -4.0836207147        4.8759124482      -22.8114174032
 C        -4.7231137266        3.5304471642      -22.5226365199
 O        -5.0590368960        3.0871176094      -21.4134317459
 C        -4.8338163774        2.5829180192      -23.7342317637
 C        -6.3382576078        2.0007306010      -23.7666293232
 O        -6.5484020512        1.0916453282      -23.0421923960
 C        -7.3873830245        2.5849317670      -24.7197675502
 C        -8.8149676782        1.9655078244      -24.4598825496
 C        -9.3467007702        2.6433424086      -23.1349564035
 O        -8.7882948627        3.5576575621      -22.5876545171
 C       -10.8035173065        2.1997315485      -22.6782804409
 C       -10.7514782872        0.6161879656      -22.1174812192
 O       -10.4707097941       -0.3712153921      -22.8113179638
 C       -11.0249450002        0.3508832176      -20.5715501924
 C       -10.2624832509       -0.8374311623      -20.0731264808
 C        -8.6797636861       -0.6099790530      -19.9621203193
 O        -8.2208016357        0.4357540742      -20.4138503463
 C        -7.7437321825       -1.7973802458      -19.5519215115
 C        -6.4204730331       -1.1551693607      -19.0232956526
 O        -5.5474741190       -0.9617475710      -19.8213944972
 C        -6.3188697815       -0.7621220066      -17.5178964242
 C        -4.9549052491        0.0028646319      -17.1432696337
 C        -5.1484657171        1.4946580566      -17.3602786557
 O        -5.5234272639        1.8785121819      -18.4989820624
 C        -4.9871143697        2.6374808664      -16.1928927116
 C        -4.7368155373        1.9617075027      -14.8418374401
 O        -4.8294016141        0.7678684318      -14.5981157834
 C        -4.2212799165        2.7442704081      -13.6389424796
 C        -4.3350745519        2.0111112986      -12.2727954475
 C        -3.3351405155        0.8512683369      -12.0539989046
 O        -2.2197843935        0.9481311566      -12.5300136749
 C        -3.6232247570       -0.2391107355      -10.9096661669
 C        -2.3450313178       -1.0047619611      -10.5104874839
 O        -2.0344367993       -1.1132122351       -9.3326670001
 C        -1.5694475890       -1.6097918020      -11.7296464709
 C        -0.6938210222       -2.8524645380      -11.4388568830
 C        -1.5447293104       -4.0325192344      -10.9718878871
 O        -2.7463977966       -4.0016991854      -10.8110878518
 C        -0.6814091892       -5.2893071486      -10.4646338280
 C        -0.0928291448       -4.8505127932       -9.1142610591
 O        -0.5540142039       -4.0086361210       -8.3801519703
 C         1.3174348062       -5.5202272912       -8.6590144844
 C         2.3801698916       -4.6899919675       -7.9288757317
 C         2.7457448440       -5.2985979691       -6.5056990521
 O         2.1924992901       -6.2581401960       -6.0733432071
 C         4.1839724075       -4.6922239478       -5.8782509789
 C         4.0261176679       -3.1997212856       -5.4595540974
 O         4.5652537214       -2.3092274235       -6.0935008478
 C         3.1552647583       -2.8714246623       -4.2363373556
 C         2.7760999711       -1.3746799752       -4.2789674100
 C         1.9371629319       -1.0062151073       -5.5743542711
 O         1.1147799689       -1.7876586276       -5.9185026440
 C         2.0132045916        0.4002749880       -6.3833028933
 C         0.5676608735        0.9922045177       -6.2796207377
 O        -0.4291005379        0.3781651208       -6.6832958350
 C         0.3601482027        2.4496517063       -5.8632142679
 C        -0.9888901538        2.6617465746       -5.1490418143
 C        -1.0956323914        1.7028778176       -3.9329662709
 O        -0.3972541997        0.7099074658       -3.9143351830
 C        -2.2438330603        1.9004082349       -2.9134074856
 C        -3.4742246454        0.8996086472       -3.4510573322
 O        -4.5727114702        1.4127273296       -3.6777196440
 C        -3.2185831279       -0.5049381739       -3.6737450793
 C        -3.3760325740       -0.7595849708       -5.1613535343
 C        -3.2294540944       -2.2414216239       -5.5512695352
 O        -2.2842076030       -2.6162597217       -6.1788010243
 C        -4.2248008097       -3.3932080630       -5.1441863146
 C        -3.7190870410       -3.9299188342       -3.7626497462
 O        -4.0652468331       -3.4712151840       -2.7020177690
 C        -2.7084761985       -5.0219810056       -3.7830986255
 C        -2.5414816767       -5.5839202765       -2.3424724571
 C        -1.7035215093       -4.7219650830       -1.4170732405
 O        -0.9094843030       -3.8505636900       -1.8106082068
 C        -1.6279006723       -5.1206016282        0.0227081211
 C        -3.0437926204       -5.1048411144        0.7949406499
 O        -3.9762029354       -5.4111969116        0.1380840943
 C        -3.1927299421       -4.9380110786        2.2773537596
 C        -4.2556336452       -5.8739145199        2.8886722946
 C        -3.6248270268       -7.3054138098        2.9124871587
 O        -2.4771332758       -7.4999331345        2.6213001334
 C        -4.4194196184       -8.5583761410        3.6384944849
 C        -4.3984449547       -8.1431166778        5.1300371280
 O        -4.7187701365       -7.0269172673        5.4928915869
 C        -4.1261933756       -9.2517856995        6.1869009726
 C        -5.9762148683       -8.5587649051        3.3720570162
 C        -3.6468925857       -9.8819559804        3.2307935054
 C        -1.1772607515       -6.6452195579        0.0472559639
 C        -0.6550093177       -4.2682646962        0.8521300281
 C        -5.6851178500       -2.8290242303       -4.9888933629
 C        -4.1675149997       -4.5204910931       -6.2994223292
 C        -1.7927782341        1.5417848637       -1.4930031652
 C        -2.7528987705        3.3473973117       -2.8967853665
 C         3.0425380730        1.4014501657       -5.7367095988
 C         2.2672482628        0.0167242429       -7.8926577213
 C         4.6840057965       -5.6700230699       -4.7336326014
 C         5.2413945705       -4.8332149405       -7.0157853354
 C        -1.5424694292       -6.5862131769      -10.2976546122
 C         0.3353932131       -5.7756780008      -11.5059746665
 C        -4.2722814250        0.5140431471       -9.7420993495
 C        -4.5820742119       -1.3223255762      -11.5037493521
 C        -3.8726151631        3.6397323663      -16.6770691297
 C        -6.4134974113        3.3459332581      -16.1646837564
 C        -8.4326528592       -2.8537136177      -18.5596319896
 C        -7.5855005966       -2.3642617707      -21.0532865584
 C       -11.3132936013        3.2047119305      -21.6518128890
 C       -11.8512293488        1.9858916997      -23.8626399151
 C        -4.3147826663        3.0466953860      -25.1308520772
 C        -3.7548578599        1.4846290037      -23.3803140483
 H        -3.0568648810        4.8096624264      -22.8896469952
 H        -4.2872161640        5.4945696169      -21.9365323714
 H        -4.5118376205        5.3196440221      -23.7153424953
 H        -7.1865849536        2.2623108976      -25.7937413399
 H        -7.3693464228        3.6902964596      -24.5457408409
 H        -8.8396503300        0.9038167247      -24.2960859552
 H        -9.5947560591        2.3014285581      -25.2091083840
 H       -12.0506495825        0.0517363033      -20.7169117061
 H       -10.9066547015        1.2068105031      -19.8935951276
 H       -10.3998048142       -1.6391044648      -20.7901944420
 H       -10.5946956775       -1.1302410814      -19.0199768998
 H        -6.5643335447       -1.6330896533      -16.9357889923
 H        -7.2062462241       -0.1320160599      -17.3079882414
 H        -4.0668608514       -0.3849572268      -17.6640550130
 H        -4.7071385400       -0.2855674469      -16.1599767908
 H        -4.7609343078        3.6906874418      -13.6657705841
 H        -3.1340246865        2.8958718768      -13.8702849544
 H        -5.3249091318        1.5940020106      -12.0854267933
 H        -4.1146371978        2.7590804703      -11.4417350306
 H        -0.9565038927       -0.8948569622      -12.2540075491
 H        -2.3440879950       -1.8471504195      -12.5155600042
 H        -0.0078374631       -2.6585327044      -10.7374294326
 H        -0.2066981038       -3.2265857110      -12.3442943337
 H         1.6850993079       -6.0316741681       -9.4800127746
 H         0.9115444523       -6.4680600275       -8.0556041207
 H         2.1373985265       -3.6301663821       -7.8343252951
 H         3.2775584060       -4.6758708053       -8.5298650953
 H         3.7208376067       -3.1707353584       -3.3038359316
 H         2.2619870799       -3.5194125995       -4.1417200911
 H         3.7554642356       -0.8711960157       -4.3131792302
 H         2.1706295434       -1.1089905512       -3.4458825598
 H         0.3232902776        2.8713296277       -6.9059069618
 H         1.2586968285        2.9842289283       -5.4990802415
 H        -1.7810568571        2.4593864965       -5.7770003114
 H        -1.1242933642        3.6807759711       -4.7678318366
 H        -3.9296187223       -1.0721724116       -3.0739803197
 H        -2.2809189595       -0.9243552888       -3.3007996785
 H        -2.6759491225       -0.2008692028       -5.7397549852
 H        -4.3893845757       -0.3524485841       -5.4782940925
 H        -1.7398947489       -4.7655547891       -4.0659856676
 H        -3.1512053285       -5.7282433885       -4.5102849958
 H        -1.9230643529       -6.5122636613       -2.5162756986
 H        -3.4170458749       -5.8978057330       -1.8779082932
 H        -3.3691485453       -3.9360163309        2.6378776001
 H        -2.2995372432       -5.2940118708        2.7485544263
 H        -5.0797713915       -5.9501286632        2.1721917719
 H        -4.5429598114       -5.5949508852        3.9105425205
 H        -3.3840639803       -9.9259865481        5.8006365740
 H        -4.9965526613       -9.9075487270        6.1317784593
 H        -3.9196232840       -9.0449077639        7.2306956220
 H        -6.2768806130       -9.5449881640        3.6512639102
 H        -6.0613415885       -8.5995857339        2.2760889834
 H        -6.5289605096       -7.7950711978        3.9102334864
 H        -2.6330842441       -9.8961188267        3.7104219691
 H        -3.5937584038      -10.0033765431        2.1543539362
 H        -4.2119551881      -10.6839816371        3.6048268874
 H        -0.2572520304       -6.8316433468       -0.4647267758
 H        -2.0186833838       -7.2367213774       -0.1980845653
 H        -1.2331712743       -6.7717780697        1.1668613264
 H         0.1978577261       -3.9026009217        0.2966120211
 H        -0.2612010228       -4.8249346735        1.7547669799
 H        -1.1785076658       -3.3405021662        1.1989578574
 H        -5.8545511831       -2.5296295364       -3.9882779211
 H        -6.3495075715       -3.5518809901       -5.3695157801
 H        -5.7080592614       -1.8785080784       -5.5782185532
 H        -4.7321554773       -5.3637281027       -6.0986696496
 H        -3.1709634749       -4.8086582969       -6.5888098349
 H        -4.6680164484       -4.0269588436       -7.1286090744
 H        -2.6229752194        1.4324880273       -0.7882663473
 H        -1.1973873546        2.3554526628       -1.0274328325
 H        -1.1235937882        0.6366699318       -1.4209570535
 H        -3.2879583032        3.4247070147       -3.8292156182
 H        -1.9479875343        4.0097240891       -2.7789302342
 H        -3.2825253640        3.4125532640       -1.9128125102
 H         2.8503363216        2.3565668370       -6.1613484516
 H         4.0628390558        0.9809364183       -5.9106368283
 H         2.7307617846        1.5239443868       -4.7209399029
 H         3.2729400011       -0.3776630737       -8.0426711620
 H         2.0571057912        0.9273120630       -8.3828504406
 H         1.5298918328       -0.7833641955       -8.1073796111
 H         4.8342690317       -6.6104404899       -5.1902599430
 H         3.9363338452       -5.6691832912       -3.8892783933
 H         5.6690213086       -5.3371968371       -4.4154114545
 H         5.1845866989       -4.2188727925       -7.9563345489
 H         5.2385445566       -5.7980090574       -7.2959896838
 H         6.1892235177       -4.5640284166       -6.4918047703
 H        -0.9175201367       -7.1909281017       -9.7691103411
 H        -1.8618624240       -7.0758663001      -11.2343798010
 H        -2.4090905524       -6.2739356544       -9.7232291536
 H         0.8593933243       -6.7362558384      -11.1577415630
 H         1.2168966898       -5.1004672286      -11.4661713733
 H        -0.0503688830       -5.7709241742      -12.4979695493
 H        -3.7331126936        1.3304493504       -9.4332154240
 H        -4.4390152750       -0.0460436147       -8.7813134389
 H        -5.2392525231        0.9185316267      -10.0308258448
 H        -4.6884745724       -2.1584036406      -10.8191008745
 H        -4.1937164766       -1.6358668681      -12.4361950794
 H        -5.6147067232       -0.9905922472      -11.7252389629
 H        -3.7575458391        3.7098218323      -17.7602040339
 H        -2.9504245121        3.2161240315      -16.2666264918
 H        -4.1109752924        4.5200081655      -16.2165303640
 H        -6.3845007962        4.1524457684      -15.4873207967
 H        -7.1193736324        2.5200291016      -15.9384369506
 H        -6.5134398492        3.8046966384      -17.1725965289
 H        -7.6023174993       -3.5002141275      -18.0534454299
 H        -9.1380278143       -3.4431223248      -19.0691383274
 H        -8.9114786328       -2.3766136326      -17.7216737995
 H        -6.6786192648       -2.9028006484      -21.1362765242
 H        -7.5750844036       -1.6277669590      -21.8590085875
 H        -8.4362591286       -2.9264592331      -21.2322988374
 H       -10.5750512189        3.3819530521      -20.7639739724
 H       -12.3000288383        2.9217096700      -21.1534912416
 H       -11.3574384542        4.1629080494      -22.1409255583
 H       -12.1446957407        2.9708786893      -24.3901225237
 H       -12.8225471760        1.6207122774      -23.4743048759
 H       -11.4469778925        1.2222281645      -24.5041935867
 H        -4.4182404248        2.3711554351      -26.0211485109
 H        -3.1994513976        3.0960873541      -25.0576578874
 H        -4.7153697558        3.9164825409      -25.5492453483
 H        -4.0403450085        0.8840550483      -22.5347333410
 H        -2.8257900445        1.8493518208      -23.0830406455
 H        -3.5722531811        0.7551345512      -24.1995815777
 Na       -6.0354971243        1.0512125347      -20.7860111896
 Na       -0.7362555724       -1.8078964895       -7.4080324989
