232

 C        -4.4233013600        4.7992611727      -23.2432165728
 C        -4.7675197275        3.3792318395      -22.8065849930
 O        -4.7653837705        3.1540860768      -21.5603690138
 C        -4.9972890512        2.3338157644      -24.0422148381
 C        -6.5104745215        1.7780795859      -23.7814337970
 O        -6.6211164102        1.0216399699      -22.8520077205
 C        -7.5428146474        2.3702551364      -24.6792076349
 C        -8.9902661398        2.0279798344      -24.3855207688
 C        -9.4575098966        2.6535273220      -22.9233543620
 O        -8.7433106147        3.2466528564      -22.1634505587
 C       -10.9124451038        2.3240719820      -22.5166690905
 C       -10.8564130462        0.7310933352      -22.1534162631
 O       -10.6311247647       -0.1057173819      -23.0044770611
 C       -10.9385463625        0.1799873064      -20.6817037084
 C       -10.0109755111       -1.0010948224      -20.5876768949
 C        -8.5368185339       -0.7189801213      -20.1850613696
 O        -8.0292130107        0.3394495044      -20.4637850592
 C        -7.7458240261       -1.9179098832      -19.6110151241
 C        -6.3225974814       -1.2199431137      -19.1018259812
 O        -5.4717223552       -1.0166235456      -19.9085555720
 C        -6.2633592155       -0.8773312658      -17.5475442529
 C        -4.9544181479       -0.1222945401      -17.1672782455
 C        -5.2057154008        1.3285505160      -17.3077614046
 O        -5.3787001037        1.8796258079      -18.4240623442
 C        -5.0646478606        2.3301680550      -16.0685627024
 C        -5.0255429337        1.6875690996      -14.6789859985
 O        -5.7000755071        0.6904219362      -14.4864199699
 C        -4.3341590895        2.4974340168      -13.6062098249
 C        -4.5156384021        2.1321962275      -12.0862399588
 C        -3.4342735436        1.0309921525      -11.7912662074
 O        -2.4972759788        0.9638642942      -12.5747000262
 C        -3.6988260233       -0.0926142203      -10.6545283155
 C        -2.3933460188       -0.8266324755      -10.3997613369
 O        -1.8471917570       -0.7485711142       -9.2966568925
 C        -1.6666195228       -1.4898267679      -11.5955446626
 C        -0.8530352392       -2.6345452903      -11.0279006388
 C        -1.6438906323       -4.0044301561      -11.0437342615
 O        -2.8613677915       -4.0735722219      -11.1813118845
 C        -0.7550006703       -5.3008172431      -10.5950613371
 C        -0.0952846026       -4.7357690883       -9.2195587360
 O        -0.6503874592       -3.8789220734       -8.5365330718
 C         1.1762563738       -5.5101037762       -8.6287182958
 C         2.0244447733       -4.5127888117       -7.8657765911
 C         2.7814857222       -5.2006867757       -6.6413836459
 O         2.2283115322       -6.1240111985       -6.0916957616
 C         4.1422426875       -4.6597334675       -6.0939762709
 C         3.9533497924       -3.1025544920       -5.7688117130
 O         4.2759693930       -2.2298290768       -6.5167606666
 C         3.2011992382       -2.7916073379       -4.4451955121
 C         2.6566579832       -1.3307099377       -4.3045694537
 C         1.9284518543       -0.9358379930       -5.6374078061
 O         1.2531344513       -1.7830041938       -6.1707216928
 C         2.0203523543        0.5743939202       -6.1833029900
 C         0.6467973701        1.2757302724       -6.2548733288
 O        -0.2924710280        0.5809152019       -6.6779738469
 C         0.4988483857        2.7567813454       -5.8960576858
 C        -0.8612771636        2.9503600892       -5.1534891012
 C        -0.9336725250        2.0851911241       -3.9571874659
 O        -0.0872127012        1.2366370310       -3.7566462827
 C        -2.2124282038        2.0564006021       -2.9959682124
 C        -3.3059131295        1.0603234861       -3.4843940586
 O        -4.4607273636        1.4268255297       -3.6834749245
 C        -2.8810695500       -0.2903011921       -3.8898775014
 C        -3.5572232823       -0.7678603825       -5.2512464320
 C        -3.2795951415       -2.2270865410       -5.5200438891
 O        -2.2486081569       -2.6870413834       -5.9779172362
 C        -4.2954249928       -3.3177752843       -4.9097741886
 C        -3.4329433512       -3.8573374925       -3.7405040106
 O        -3.5030958007       -3.3096576159       -2.6103684493
 C        -2.5071341445       -5.0958150042       -3.8777236971
 C        -2.1808005273       -5.7527003275       -2.4568550845
 C        -1.4980365182       -4.8341303223       -1.4891663693
 O        -1.0361735034       -3.7407845534       -1.7629344114
 C        -1.4415284128       -5.3193706358       -0.0394744084
 C        -2.8959972924       -4.9093979658        0.6269127918
 O        -3.7673297661       -4.3015534754        0.0615099160
 C        -3.1499225925       -5.3227082278        2.0661285157
 C        -4.1121109864       -6.4753351656        2.4527812747
 C        -3.3357859589       -7.8564757423        2.9510139867
 O        -2.1629634634       -8.0901780535        2.7736334712
 C        -4.3178708738       -8.8531570724        3.6201818920
 C        -4.5848126296       -8.4835974426        5.1245589679
 O        -4.8481984951       -7.3301451338        5.3321221636
 C        -4.2430447103       -9.4670611979        6.2668495466
 C        -5.7163470107       -8.9799425673        2.8641344285
 C        -3.6771284702      -10.3627580599        3.5889686928
 C        -1.2101034260       -6.8448282748        0.0426499190
 C        -0.4348247297       -4.4511606938        0.7237046428
 C        -5.7258661875       -2.7748352265       -4.4688086173
 C        -4.5116674107       -4.4880241973       -5.8945791009
 C        -1.9693085964        1.5022805156       -1.5963045715
 C        -2.7963824397        3.5070803813       -2.6919068539
 C         3.0297842060        1.4210849183       -5.3758571068
 C         2.5191004306        0.3802590168       -7.7188496724
 C         4.3846437566       -5.4752522441       -4.7904368330
 C         5.2597227733       -4.9958005503       -7.0706662621
 C        -1.5937530072       -6.5472554169      -10.2585813474
 C         0.3048607821       -5.7063661369      -11.6145672872
 C        -4.2065183824        0.5743754923       -9.4045094806
 C        -4.8153715631       -0.9800407015      -11.4143693381
 C        -3.7672120592        3.1712999492      -16.3830156214
 C        -6.2543731826        3.2709734878      -16.0254837215
 C        -8.6462997073       -2.6688525770      -18.5290816057
 C        -7.4566178745       -2.8208832842      -20.8018488600
 C       -11.3108092937        3.0991751732      -21.2500394854
 C       -11.9475493970        2.6960308491      -23.6904187146
 C        -4.6540303577        2.9103507191      -25.4035503350
 C        -4.0085067145        1.1629157800      -23.7438630589
 H        -3.5419319468        4.7964284640      -23.9015826996
 H        -4.2420041383        5.3565207619      -22.2665351248
 H        -5.2672893228        5.3519201325      -23.7769030494
 H        -7.3563567958        1.8703302153      -25.6952899778
 H        -7.4176329293        3.4841938781      -24.6707789337
 H        -9.0577681800        0.9446346526      -24.1588001931
 H        -9.7700207334        2.3440005891      -25.1661602903
 H       -11.8319353063       -0.3928290128      -20.4275457955
 H       -10.7423688598        0.9525066149      -19.9402549400
 H       -10.0791761270       -1.4660568520      -21.5586742838
 H       -10.4722162431       -1.8061009557      -19.9440996929
 H        -6.3347195245       -1.9046318352      -17.0572365453
 H        -7.1649917107       -0.2630124485      -17.2849474720
 H        -4.1548263327       -0.4924024552      -17.7805679795
 H        -4.6060830443       -0.3916806913      -16.1877800100
 H        -4.6750891890        3.5269570054      -13.7767751644
 H        -3.2637808974        2.4547915030      -13.8916826344
 H        -5.5027783084        1.8077913664      -11.8033894341
 H        -4.2522323700        3.0344285590      -11.4880030764
 H        -1.0766804784       -0.6242513378      -11.9459619543
 H        -2.2564436850       -1.6790714345      -12.5483284088
 H        -0.6870538428       -2.5689817200      -10.0249260817
 H         0.0982558339       -2.7585504855      -11.5242437621
 H         1.6614586150       -5.9298850132       -9.4875803910
 H         0.8907699633       -6.3117587410       -7.9625212382
 H         1.5026982959       -3.7202876873       -7.3392486699
 H         2.7112738408       -4.0297851645       -8.5352969857
 H         3.7774941419       -3.0914004691       -3.5308061859
 H         2.4188249116       -3.5483139901       -4.3266267059
 H         3.5798346542       -0.7514364538       -4.0891183797
 H         1.9835329474       -1.3464957671       -3.4788626846
 H         0.6155422408        3.3727388405       -6.8517862761
 H         1.3488928956        3.0881836808       -5.3278204603
 H        -1.6404791012        2.8204125974       -5.7875047204
 H        -0.8221233911        3.9768674891       -4.7615547201
 H        -2.9964866855       -1.0083359786       -3.0450345641
 H        -1.7466347834       -0.3625326502       -4.0647481224
 H        -3.1836309481       -0.2539388708       -6.1023288429
 H        -4.6406343431       -0.5354661559       -5.1374160930
 H        -1.6546734252       -4.7257037698       -4.3757372802
 H        -3.0105895100       -5.9054755690       -4.4620577959
 H        -1.4312575283       -6.5419335947       -2.6286026877
 H        -3.0114654331       -6.2876117640       -2.1529818450
 H        -3.5732086148       -4.3956003121        2.5183350157
 H        -2.2437992065       -5.4540238136        2.6498901105
 H        -4.6359997762       -6.7577386210        1.5079791989
 H        -4.8449919115       -6.1056242973        3.1984621520
 H        -4.5091135874      -10.4634004694        6.0507050231
 H        -4.9203845110       -9.2102808921        7.1004248122
 H        -3.1951524059       -9.4637696120        6.6074479544
 H        -6.2839444226       -9.8077882040        3.2150059217
 H        -5.3922242854       -9.0218236727        1.8204205874
 H        -6.2596195879       -8.0514240330        3.0780620987
 H        -2.7554945360      -10.4221482953        4.2414595651
 H        -3.3839552408      -10.4720051838        2.5350735731
 H        -4.4229040400      -11.0775132253        3.8890085785
 H        -0.2690838902       -7.0918163774       -0.3775866324
 H        -1.9113950302       -7.3772286954       -0.6257574020
 H        -1.4317563415       -7.0580628676        1.1353564954
 H         0.5754572276       -4.6884331837        0.3785364969
 H        -0.4715395923       -4.5262914265        1.8716436954
 H        -0.6263426177       -3.4104008216        0.4245066010
 H        -5.6926044714       -1.8393462189       -3.9493409468
 H        -6.0716969731       -3.4890068811       -3.7363700275
 H        -6.3272339451       -2.6932575722       -5.3845424964
 H        -5.0712951243       -5.2470183341       -5.3364171073
 H        -3.5797090121       -4.9429477953       -6.1620775285
 H        -5.1348166345       -4.2100791326       -6.8162509320
 H        -2.7524268257        1.6898089316       -0.8932289586
 H        -1.1022807419        1.9332942048       -1.1205786027
 H        -1.9304218915        0.3975238733       -1.6004137913
 H        -3.1297195817        3.8965215588       -3.6531326913
 H        -1.9548352410        4.0582155008       -2.3982425483
 H        -3.5839468294        3.3699649038       -1.9249621666
 H         3.2374712605        2.4636788616       -5.7468910458
 H         4.0031233314        0.8573756046       -5.5485333495
 H         2.6821445537        1.2875152189       -4.3565042913
 H         3.2260862773       -0.4437687570       -7.6825803866
 H         2.9453696008        1.2771850075       -7.9511935299
 H         1.6212377991        0.2185175181       -8.3150272269
 H         4.2778358725       -6.4818547796       -5.0931231509
 H         3.5397065646       -5.1190984454       -4.1157151941
 H         5.2897882636       -5.2551208335       -4.2717245911
 H         5.2204539791       -4.4009594527       -8.0129439341
 H         5.1772317660       -6.0265873112       -7.4047069952
 H         6.2322122447       -4.8484410765       -6.5265215234
 H        -1.0419005575       -7.4331049366      -10.2922494303
 H        -2.2077769261       -6.5699346988      -11.1180316381
 H        -2.1842357768       -6.3866219152       -9.3500502920
 H         0.6411185212       -6.7128743209      -11.4555796029
 H         1.2066686160       -5.1551330537      -11.7105359783
 H        -0.1639470255       -5.6913699400      -12.6682195031
 H        -3.5475032430        1.0769635931       -8.7877155696
 H        -4.6760682999       -0.1297067862       -8.6737234487
 H        -5.0744383944        1.1897730785       -9.6950822796
 H        -5.0682009402       -1.8249322068      -10.8404138209
 H        -4.4733728854       -1.2038964578      -12.3730619856
 H        -5.7647175981       -0.4422344621      -11.6235539744
 H        -4.0428592199        3.8157730254      -17.2062000366
 H        -2.9856659095        2.4836317183      -16.7936917838
 H        -3.4839333815        3.6245252725      -15.5061689906
 H        -6.0736747004        4.0812025585      -15.4397070833
 H        -7.1051619940        2.6917072413      -15.7041316110
 H        -6.3359081712        3.4818408341      -17.0859955412
 H        -8.0263327010       -3.0303486030      -17.6255039373
 H        -9.2620637433       -3.4396104058      -19.0610197149
 H        -9.2861175224       -1.9271037154      -18.1142301541
 H        -7.1437690314       -3.8495099696      -20.4309065473
 H        -6.5798404574       -2.4220335619      -21.4245624058
 H        -8.2914242507       -2.9865164932      -21.4284416419
 H       -10.5686625641        3.1103422144      -20.4245604546
 H       -12.0960742450        2.5039267167      -20.7349192581
 H       -11.6290478209        4.1092510010      -21.5032298981
 H       -11.6685889253        3.7001930904      -24.0712412281
 H       -12.9729291713        2.6949748971      -23.3988239757
 H       -11.8322293921        1.9906047763      -24.4787183964
 H        -5.1290983423        2.4990496488      -26.3080603331
 H        -3.5729848307        2.7896714507      -25.5243246603
 H        -4.8292352960        3.9514889071      -25.5220838210
 H        -3.9093640637        0.8539975137      -22.6900337723
 H        -3.0284706284        1.3036161943      -24.0770853871
 H        -4.3881360291        0.2478316914      -24.2108968974
 Na       -5.7638506680        1.2743816475      -20.6685051171
 Na       -0.5610153978       -1.7246371514       -7.3650991609
