232

 C       -20.3015312188       -4.6460548722       -5.5086230002
 C       -20.3482825914       -5.6806254702       -4.3479671476
 O       -19.4034106126       -6.5183769872       -4.2615935798
 C       -21.4103431035       -5.5308914904       -3.2630962959
 C       -20.6335578127       -5.0794629354       -1.9907281381
 O       -20.2649853652       -5.9897747914       -1.2931577491
 C       -20.2954389724       -3.5799208164       -1.5956152566
 C       -18.9129637430       -3.5019418500       -0.9138379859
 C       -17.7418016406       -3.8948232822       -1.9038145077
 O       -17.9049499076       -4.4445584516       -2.9889219278
 C       -16.3129119965       -3.6930995607       -1.3833680321
 C       -15.8974457008       -5.1246791691       -0.8971487458
 O       -16.6638036700       -5.7486882902       -0.1837348540
 C       -14.5482477759       -5.6552393118       -1.3826171347
 C       -14.3113530564       -7.1329503706       -0.9260757401
 C       -14.9722559985       -8.0463742440       -2.0040776958
 O       -16.0455086544       -7.7956276088       -2.5787732374
 C       -14.1432263674       -9.2532121049       -2.5726517873
 C       -12.8903999747       -8.7222781089       -3.3548997403
 O       -12.9157951184       -7.6882336073       -3.9845497990
 C       -11.6367403932       -9.5619601420       -3.2251539830
 C       -10.4396594304       -9.2282724261       -4.0713528082
 C        -9.1448755055       -9.8419896766       -3.4762450766
 O        -9.0324133691      -10.1724839781       -2.3085660039
 C        -7.7721579903       -9.8331392983       -4.2836813536
 C        -7.7112583828       -8.4287515841       -4.9612106048
 O        -8.1643368814       -7.4098805119       -4.4307135126
 C        -6.9075323096       -8.3039831218       -6.2272967014
 C        -6.4816374002       -6.8370309744       -6.5375851769
 C        -7.4375561339       -6.2057608134       -7.6435334877
 O        -8.0536768207       -6.9033958381       -8.4000766780
 C        -7.3588577759       -4.5977177915       -7.7781368648
 C        -6.1872702099       -4.3789872755       -8.6994844163
 O        -5.1585437413       -4.0795427722       -8.1450663225
 C        -6.1846203523       -4.7135422354      -10.2217237344
 C        -5.4598757470       -3.6463119986      -11.0644598903
 C        -5.7591095373       -3.9395542414      -12.5867139525
 O        -6.6735318692       -4.7203210330      -12.8534497463
 C        -4.8555659757       -3.4835378801      -13.7683214736
 C        -3.9960476461       -2.1513185030      -13.2844929687
 O        -4.4854685311       -1.3897224267      -12.4515500605
 C        -2.5695436563       -1.7883542137      -13.8782996245
 C        -1.6606386630       -2.2447116312      -12.7252909060
 C        -0.1123073759       -2.0327954341      -13.0367482001
 O         0.1641895308       -1.2511983643      -13.9426154014
 C         1.1149149929       -2.6134087867      -12.2860167578
 C         2.2875668447       -1.4505022315      -12.1380507190
 O         3.3570224529       -1.5486668166      -12.6669628791
 C         1.8650339735       -0.1854378605      -11.2259746224
 C         3.1823559278        0.6711912540      -10.9126950025
 C         2.8686056477        2.1126818862      -10.5333487342
 O         1.7426616577        2.5687275032      -10.5846795280
 C         4.1920192734        3.1014026222      -10.1602658824
 C         4.5421014631        3.8573565524      -11.4916572215
 O         5.4698177538        3.6096957762      -12.2034321322
 C         3.5568631369        5.0464011334      -11.8393323129
 C         4.3179612988        6.4569559635      -11.6577830747
 C         5.4801876711        6.5973631388      -12.5991314457
 O         5.3691130689        6.0541124059      -13.6697710964
 C         6.6770970229        7.6283775067      -12.1036815808
 C         7.5705821582        7.7823282728      -13.3405729670
 O         7.4595693010        8.6871101720      -14.1139070279
 C         8.5454315350        6.6364869672      -13.6371594577
 C         9.1272388822        6.7796195095      -15.0070524311
 C         8.3320972937        5.9926252345      -16.1552267844
 O         7.5147757070        5.1796058863      -15.8637537592
 C         8.6383077576        6.3545322173      -17.6771984548
 C         9.0011555994        4.9914706163      -18.4639543325
 O         9.4617400208        3.9608710771      -18.0522958607
 C         8.8254936389        5.1465727310      -20.0809018361
 C         9.3289777503        3.8316194653      -20.7530585154
 C         8.1970613769        2.8933668617      -21.0354326323
 O         7.0445629621        3.2858029149      -21.2241057015
 C         8.3749915300        1.2662099911      -20.9430318406
 C         8.8142727394        1.0436832879      -19.3836243301
 O         9.9092281836        0.6993521985      -19.1008299431
 C         7.6650931265        1.1391044339      -18.2337819192
 C         8.5243401400        1.2488608084      -16.8975213192
 C         7.5726660822        1.4092392304      -15.7017015599
 O         7.8079086292        2.3198439333      -14.9238938068
 C         6.3093145275        0.5568236926      -15.4177817549
 C         4.9640057997        1.2074814720      -15.8365906629
 O         4.8493081405        2.4327265019      -15.7044777103
 C         3.9425076199        0.5207691616      -16.6746650448
 C         6.3400653774       -0.8767949808      -15.9012015662
 C         6.2822100681        0.5308691547      -13.8496503667
 C         7.0868881925        0.6715790108      -21.4309535531
 C         9.5374708152        0.9279373571      -21.8325576179
 C         7.2863531319        7.0564806065      -17.9424459712
 C         9.8611942803        7.2482593370      -17.9128024836
 C         6.2672545949        8.9732538221      -11.5147739989
 C         7.4543403315        6.7677664217      -10.9099287278
 C         3.6871818593        4.1092840828       -9.0413048061
 C         5.2027939933        2.2211314380       -9.6388591083
 C         0.7892639394       -3.1445686546      -10.8261916542
 C         1.8630447033       -3.6494141809      -13.1341421623
 C        -4.0374676140       -4.7175191267      -14.2100989857
 C        -5.7096988428       -2.9372063817      -15.0448622353
 C        -8.6941966610       -4.0153940603       -8.4004464004
 C        -7.0824877266       -3.9651130108       -6.3958206394
 C        -6.6211381148      -10.0928821334       -3.3727864638
 C        -7.9207617376      -10.9350236706       -5.4167609694
 C       -13.7614388336      -10.2030413560       -1.3207163164
 C       -14.9741300393      -10.1257311326       -3.5282124035
 C       -15.2985670450       -3.0737460554       -2.4586014660
 C       -16.1107763382       -2.6227726108       -0.1728735163
 C       -22.6191752455       -4.5125297153       -3.6989593093
 C       -22.0575352157       -6.9813966796       -2.8891644453
 H       -20.7106109142       -3.7602403551       -5.0269701978
 H       -20.8553997522       -5.0853328046       -6.3807812971
 H       -19.3155666875       -4.4778793454       -5.9153624077
 H       -21.1842370630       -3.2101528586       -1.0840698899
 H       -20.3077833613       -2.9809314645       -2.5143361331
 H       -18.7975077166       -4.1174832627       -0.0094954022
 H       -18.6450190969       -2.5163126428       -0.5762598782
 H       -13.8268676538       -4.9652106949       -0.9562147807
 H       -14.4748899468       -5.6252678707       -2.4941385840
 H       -14.9568103184       -7.2520380156        0.0394440411
 H       -13.2734854792       -7.2990533295       -0.9191232974
 H       -12.0203300214      -10.5941946450       -3.4166825357
 H       -11.4474676169       -9.5923589200       -2.1912671581
 H       -10.2675440655       -8.2069465173       -3.9355807151
 H       -10.5560562591       -9.4375546868       -5.1134694556
 H        -7.5913853275       -8.6528854186       -6.9825179304
 H        -6.1305544956       -9.0229024319       -6.1677113939
 H        -5.4134660328       -6.7295706971       -6.8896594186
 H        -6.5843662302       -6.0983299865       -5.7673758253
 H        -7.1437000548       -4.8793283359      -10.6126888417
 H        -5.5959796952       -5.7080321674      -10.1091205932
 H        -4.3792087752       -3.6863580813      -11.0526412835
 H        -5.6904075756       -2.6107211635      -10.6601296119
 H        -2.6215397415       -0.6980035499      -14.0228466892
 H        -2.2433172851       -2.3969170276      -14.7231936649
 H        -1.6505858142       -3.2614319673      -12.3368685316
 H        -1.8554029873       -1.6133415243      -11.9101489391
 H         1.6385138207       -0.7021928423      -10.2740879295
 H         0.8967236021        0.2634049659      -11.4882029787
 H         3.6441862171        0.6808785848      -11.8475321939
 H         3.8402259099        0.1378121145      -10.1786884444
 H         2.6589769852        5.1469681648      -11.2509911009
 H         3.3403203095        5.0617829799      -12.8677686899
 H         4.5582672397        6.5291048255      -10.6166143592
 H         3.5645204416        7.2019715754      -11.6607105086
 H         7.9695922839        5.7326680124      -13.5455765165
 H         9.3415102812        6.5211955015      -12.8747099054
 H        10.1603180975        6.3862599117      -15.0272894839
 H         9.1624620808        7.8086190469      -15.3923640208
 H         9.4215643092        5.9877405814      -20.5398518794
 H         7.7583244185        5.3748180952      -20.1908954196
 H        10.0918756711        3.3017203950      -20.0676276017
 H         9.8653020263        4.0688556594      -21.6513195698
 H         7.0014510093        0.2833664709      -18.1730165304
 H         7.0925524004        2.1023957740      -18.2750298567
 H         9.2015722086        2.0649371239      -17.0218488742
 H         9.1053953077        0.4214111113      -16.5480067009
 H         4.1548684859        0.0742350126      -17.6058965361
 H         3.0832814812        1.1881872247      -16.8851992803
 H         3.5785974640       -0.3321085583      -16.0513560575
 H         5.4325289086       -1.3567399820      -15.4672973453
 H         7.3098110073       -1.3817663928      -15.7074330405
 H         6.3579126716       -0.9539092512      -17.0029109972
 H         5.4034432082       -0.0194167694      -13.6102522804
 H         6.1155393823        1.4598402717      -13.4412486652
 H         7.0532714814       -0.1064161522      -13.3684721666
 H         7.1045081443       -0.3633453289      -21.7115434443
 H         6.9737082149        1.0810007849      -22.4090231063
 H         6.2922589361        0.9187668954      -20.7808985859
 H         9.4422403695       -0.1435755475      -22.0309616245
 H        10.4932575554        1.3066764845      -21.4300264092
 H         9.4133821164        1.4954328897      -22.7492942387
 H         7.3316358909        8.0530964101      -17.4610991997
 H         6.4837326807        6.4314360310      -17.5780959740
 H         7.0813390040        7.1865279308      -18.9709654342
 H        10.7378398646        6.7657941009      -17.4866073359
 H         9.5548585344        8.2662271384      -17.6837916863
 H        10.0701861240        7.3855042734      -19.0013356917
 H         7.0903628573        9.7269247746      -11.3901443686
 H         5.9133774718        8.8368050097      -10.5061552504
 H         5.4442221630        9.3664864437      -12.0588899077
 H         6.8303101234        6.8988804814      -10.0109866088
 H         8.3306829168        7.3238398841      -10.7457309945
 H         7.7421675115        5.7247122613      -11.0418569181
 H         4.0955442029        3.8217696103       -8.0904025007
 H         2.5509361658        4.1265713715       -9.0111432401
 H         4.1679731715        5.1411296239       -9.2486533300
 H         6.0768116343        2.7351452337       -9.3206889518
 H         5.4974530119        1.4053159617      -10.2537430858
 H         4.6874861333        1.7202865785       -8.7802481809
 H         0.1365751192       -2.5797774937      -10.2096206198
 H         1.6564398234       -3.4535841681      -10.3060743766
 H         0.2240388910       -4.0597473807      -10.8430499594
 H         1.3658813353       -4.5739973585      -13.0319010786
 H         2.8509746778       -3.8297038163      -12.8122605192
 H         1.9935406640       -3.3914085294      -14.1873128183
 H        -3.3642389327       -4.4114479207      -15.0259757775
 H        -4.6275777518       -5.4732276158      -14.6929795279
 H        -3.5184147061       -5.1754959206      -13.3252120681
 H        -4.9709870651       -2.5998811635      -15.7845678218
 H        -6.3103610665       -2.0381293203      -14.7919782482
 H        -6.2738316346       -3.7728224979      -15.3670660880
 H        -8.9169317854       -3.1852623972       -7.8177729446
 H        -9.4742515998       -4.7608965320       -8.3563481108
 H        -8.7213305871       -3.7011486392       -9.4860818004
 H        -7.8403707745       -4.2739939951       -5.7096363551
 H        -7.2773857670       -2.9035160044       -6.6828217951
 H        -6.0392538664       -4.0109367827       -6.0122850471
 H        -6.9718137777      -10.5883077988       -2.5073428696
 H        -6.0135342279       -9.2638239280       -2.9821153641
 H        -5.9797119592      -10.7848041870       -3.9020956496
 H        -8.0701997842      -11.9284634787       -5.1663800114
 H        -6.9844383713      -10.8670033401       -6.0313841304
 H        -8.7974951935      -10.8123383856       -6.0697673959
 H       -13.4205337578       -9.7068118016       -0.4160400181
 H       -12.9772462700      -10.9360638764       -1.7353582326
 H       -14.6512074749      -10.7500184753       -1.1177576411
 H       -15.0414667680       -9.5735485052       -4.5660433794
 H       -15.9768330347      -10.3047329926       -3.1218621923
 H       -14.5202518885      -11.1046013319       -3.7774250041
 H       -15.4330675595       -3.6198144854       -3.3980304338
 H       -14.2641058195       -3.1709368187       -2.0175994310
 H       -15.5505076808       -1.9920770230       -2.5480329146
 H       -16.4118782362       -2.9899861405        0.7642947313
 H       -16.5553570503       -1.6497193806       -0.3209703414
 H       -15.0468936869       -2.5171459461       -0.1468185782
 H       -22.2138080564       -3.5197042071       -3.4187947697
 H       -23.4952105369       -4.7784735545       -3.1301747320
 H       -22.8818837210       -4.6861637734       -4.6756301386
 H       -22.8323908046       -6.8149249981       -2.1143944243
 H       -21.3094971737       -7.7014320404       -2.6188066530
 H       -22.6320745360       -7.3396360423       -3.7323389562
 Na      -17.9721637885       -6.7663230195       -2.2300873874
 Na        6.2370491532        3.8508532329      -14.4085857811
