232

 C        -4.5015130475        4.8589247630      -23.2379651337
 C        -4.7245572874        3.3892956206      -22.9641552965
 O        -4.8247504104        2.9234155445      -21.8464125845
 C        -4.9802468571        2.3452203562      -24.0146491262
 C        -6.4482590188        1.7891511731      -23.7761567145
 O        -6.7662549813        1.1115338774      -22.8095470940
 C        -7.5031550959        2.2483847166      -24.7216380939
 C        -8.9646155336        2.0553767344      -24.1920494904
 C        -9.3921366656        2.5737549814      -22.8273179876
 O        -8.7271016655        3.2969765874      -22.1217948360
 C       -10.8972834610        2.2644034111      -22.3622674725
 C       -10.8039885381        0.7923280349      -22.1123061185
 O       -10.7469904499        0.1098229196      -23.0930270436
 C       -10.8113899094        0.1994383273      -20.7439159293
 C        -9.8812095200       -1.1283281293      -20.8090329740
 C        -8.5144605382       -0.7258050240      -20.2484228103
 O        -8.0238534473        0.3488531220      -20.5198562609
 C        -7.7171710998       -1.9192370830      -19.5273812060
 C        -6.4056775902       -1.3147741731      -19.0397586839
 O        -5.5082214255       -0.9518567967      -19.8211818536
 C        -6.2746851239       -0.9797990650      -17.6032396950
 C        -4.9747384017       -0.2151545403      -17.2681875725
 C        -5.1830094451        1.3031373110      -17.2821423647
 O        -5.4365748961        1.8542279907      -18.3084910642
 C        -5.0772992535        2.3145236303      -16.0852567422
 C        -5.1940721952        1.6433260870      -14.6581555685
 O        -5.8188681015        0.6097844041      -14.5283312358
 C        -4.4702382331        2.5347143917      -13.5389405100
 C        -4.5352892725        2.0386760929      -12.1599471799
 C        -3.3840382420        1.0133118593      -11.8497383380
 O        -2.4190912754        0.9954288032      -12.5859033336
 C        -3.7272915830        0.0696339225      -10.7134947721
 C        -2.3657665286       -0.7598212557      -10.4005588376
 O        -1.9160049220       -0.7295043504       -9.2715128208
 C        -1.7475486278       -1.5805809724      -11.5403095397
 C        -0.8130413772       -2.6746351959      -11.1094759853
 C        -1.6377041465       -4.0011276117      -10.9847792511
 O        -2.7576641810       -4.0029638476      -11.3822632508
 C        -0.8329183765       -5.1840192125      -10.4881482898
 C        -0.1056366590       -4.7450274903       -9.1056016332
 O        -0.6960519507       -3.8553004562       -8.5348155156
 C         1.1973704403       -5.3020938350       -8.6460542146
 C         2.2535647247       -4.4973609875       -7.8551437504
 C         2.8025985911       -5.2634102345       -6.5917396161
 O         2.2011398491       -6.1995912053       -6.0657354422
 C         4.1203440863       -4.7151852626       -6.0332474094
 C         3.8221754781       -3.2033023384       -5.7838089727
 O         4.1323517737       -2.4064234882       -6.6541539756
 C         3.0912364021       -2.7244506663       -4.4537656241
 C         2.5745139983       -1.2722666113       -4.3525353334
 C         1.9044793495       -0.8411439618       -5.5793154927
 O         1.2756459687       -1.6772400976       -6.2067270544
 C         2.1087548858        0.6045699918       -6.1061596030
 C         0.6161939186        1.2646789341       -6.2182682946
 O        -0.3571937664        0.6282297319       -6.6549123961
 C         0.3824041077        2.7418335936       -5.9311038340
 C        -0.8902135586        3.0473969413       -5.0544357079
 C        -0.9124910820        2.0516959460       -3.8623828553
 O        -0.0053933968        1.2660647911       -3.6397011159
 C        -2.1960261973        2.0318133628       -2.9670739375
 C        -3.3381811916        1.1543477814       -3.7011406099
 O        -4.4995656097        1.4120728181       -3.7951744118
 C        -2.7880718652       -0.3456558292       -4.0304504799
 C        -3.4975086183       -0.7460231281       -5.3326785214
 C        -3.2960588181       -2.1744265414       -5.5429915813
 O        -2.3534996570       -2.6148094678       -6.2257122184
 C        -4.2339934655       -3.3244376805       -4.8580578070
 C        -3.3908867239       -3.8538953125       -3.5013767961
 O        -3.5715707690       -3.2868299296       -2.4767081234
 C        -2.4469570093       -5.0024023925       -3.8201577829
 C        -2.1439690787       -5.7989972852       -2.5679027540
 C        -1.4832543798       -4.8131533714       -1.6176983834
 O        -1.0172268447       -3.7832784020       -1.9959771977
 C        -1.4704112776       -5.3131487660        0.0172628375
 C        -2.8515966313       -5.0118545702        0.6956299021
 O        -3.6610098496       -4.2122628120        0.1799025869
 C        -3.0105272699       -5.5479475943        2.1685053245
 C        -4.0355871695       -6.7158196287        2.3121001363
 C        -3.4116538177       -8.0110095497        2.8768374910
 O        -2.1637069417       -8.0371989413        2.9122296856
 C        -4.2810985000       -9.0395976463        3.5582800100
 C        -4.5392203771       -8.4336268956        5.0552154463
 O        -4.9806805800       -7.3246246119        5.2576069387
 C        -4.3183856111       -9.4208508178        6.1973785229
 C        -5.7159078565       -9.1501569655        2.9350229258
 C        -3.5875486104      -10.4260339793        3.5329515647
 C        -1.1255367738       -6.8345632609        0.1193733904
 C        -0.3223223568       -4.5294152721        0.7652321656
 C        -5.5595385326       -2.7615261767       -4.3373221540
 C        -4.5223269383       -4.4408212853       -5.8180446826
 C        -1.8850929342        1.4657042045       -1.4959264177
 C        -2.6751111480        3.5876475859       -2.7863579418
 C         3.1914000083        1.4194732425       -5.4285787235
 C         2.6395760839        0.5160128478       -7.6557795025
 C         4.4711970632       -5.4865043346       -4.6943766058
 C         5.2058269184       -4.9021973895       -7.2419212197
 C        -1.6890534769       -6.4569720686      -10.2280214111
 C         0.2706449974       -5.5707312298      -11.5580628810
 C        -4.3153458159        0.6094421124       -9.3954587980
 C        -4.8424725105       -0.8579534535      -11.2493564913
 C        -3.6934032911        3.0624612719      -16.2829204194
 C        -6.3169186189        3.3670014770      -16.1145915428
 C        -8.5167479926       -2.6392064783      -18.4552846743
 C        -7.4616997104       -2.8287831290      -20.7626548683
 C       -11.3687686592        3.1699835039      -21.1633316694
 C       -11.6991604323        2.6036723591      -23.6415133297
 C        -4.8890581309        2.8706377729      -25.4592308315
 C        -4.1204299979        1.0319683496      -23.7118995684
 H        -3.5611312213        5.0228120996      -23.8163956176
 H        -4.5559915422        5.3351761352      -22.2943114477
 H        -5.2746545037        5.2798403152      -23.8195663445
 H        -7.5020422550        1.5961553905      -25.6360858781
 H        -7.4334125591        3.3448726420      -24.9316543385
 H        -9.3635432136        1.0211720715      -24.2020959746
 H        -9.6081456238        2.6621765642      -24.7913379874
 H       -11.7342595362       -0.2006707773      -20.3029069710
 H       -10.3987743867        0.9384902832      -20.0974801662
 H        -9.8247907844       -1.4523595965      -21.8788198723
 H       -10.2592444846       -2.0421908466      -20.3437552969
 H        -6.2109165876       -1.9662601477      -17.1049018453
 H        -7.1082059447       -0.4432378832      -17.3135499390
 H        -4.2011138658       -0.5467605590      -17.9142280032
 H        -4.6212758852       -0.6268169037      -16.2710019894
 H        -4.8806025895        3.6074304723      -13.5705559796
 H        -3.4342767917        2.5802881574      -13.8663668525
 H        -5.5133458581        1.5065675659      -11.9774735686
 H        -4.5201376875        2.9207609982      -11.5025005096
 H        -1.2414201502       -0.8381528084      -12.1326629945
 H        -2.4883961068       -1.8769452705      -12.2445553933
 H        -0.1503266980       -2.5491931788      -10.2061610191
 H        -0.1795817582       -2.8495696240      -11.9109779449
 H         1.5684285062       -5.9486476981       -9.5980053033
 H         0.8690483451       -6.0655482771       -7.8392781418
 H         1.8880551040       -3.6243755202       -7.3211852136
 H         3.0681518264       -4.1635910384       -8.4603660075
 H         3.7395497703       -2.9645073805       -3.5758868580
 H         2.2857291768       -3.4364706627       -4.1967570304
 H         3.4418245144       -0.6562099450       -4.1674046737
 H         1.8916429449       -1.2696543455       -3.5176062139
 H         0.2177608237        3.1926566155       -6.9784171066
 H         1.2523718902        3.2318293964       -5.6185197135
 H        -1.7567022842        2.8368284946       -5.6642864894
 H        -0.7767746213        4.1019380922       -4.8444167352
 H        -3.0039800830       -1.0053453371       -3.2212344494
 H        -1.7012376765       -0.5190978058       -4.2069666715
 H        -3.0448547392       -0.2516363063       -6.2239345838
 H        -4.5255491717       -0.4584980796       -5.2121611370
 H        -1.5765726465       -4.4920124208       -4.1334886509
 H        -2.8302593831       -5.6398493304       -4.5991014299
 H        -1.5868353504       -6.6898700318       -2.8041675583
 H        -3.0987730355       -6.1971933267       -2.1590056164
 H        -3.4016250908       -4.7400116090        2.7782912998
 H        -2.1033042304       -5.7401319186        2.6703065929
 H        -4.5940293733       -6.8189737414        1.3202211954
 H        -4.7563425541       -6.4113731034        3.0554771790
 H        -4.9262598802      -10.2813911439        5.9781929454
 H        -4.5601230213       -9.1560329114        7.2217905901
 H        -3.3001422453       -9.7880775099        6.1371449721
 H        -6.3299943116       -9.9951644200        3.1964114829
 H        -5.4882844269       -8.9456431409        1.9101481040
 H        -6.1639609262       -8.2378424066        3.3425740719
 H        -2.8914074555      -10.5332924598        4.3225229492
 H        -3.0470963384      -10.4487287827        2.5978862635
 H        -4.3863899139      -11.1918730892        3.6167358281
 H        -0.1387104160       -7.1303134781       -0.1968956951
 H        -1.7673270847       -7.3601693881       -0.6269926762
 H        -1.3728623634       -7.0329949402        1.1116715447
 H         0.6551504078       -5.0699353186        0.4920328155
 H        -0.4211660477       -4.4446730377        1.8743457007
 H        -0.2388335612       -3.5063333994        0.3503174270
 H        -5.2875850994       -2.1717227343       -3.4611207158
 H        -6.0929798059       -3.6348037051       -3.8795255639
 H        -6.1014062473       -2.2485166815       -5.0487690168
 H        -4.8936840159       -5.3190290603       -5.2659152508
 H        -3.6349821974       -4.7069884839       -6.3241199070
 H        -5.2720749335       -4.1474702257       -6.5473071416
 H        -2.6265795100        1.5011632385       -0.7067626430
 H        -1.1046200126        2.1943271970       -1.2138039949
 H        -1.5267515317        0.4366787237       -1.4666321667
 H        -3.0479337898        3.8703855134       -3.7857886510
 H        -1.7852621216        4.2242285349       -2.5766816083
 H        -3.4888517507        3.4850487141       -2.1191897620
 H         3.3756165674        2.2825465530       -6.1372599079
 H         4.1415015728        0.9535398079       -5.3040753720
 H         2.6909708683        1.7131470358       -4.5023347990
 H         3.3552746934       -0.2904113980       -7.6136405881
 H         3.1395958072        1.4603120633       -7.8540822090
 H         1.7849460133        0.4047963466       -8.2926310147
 H         4.3134811534       -6.5651045485       -4.8791497440
 H         3.8631898339       -5.0868069321       -3.9166294648
 H         5.4838878895       -5.2393749971       -4.4158694066
 H         4.9034469234       -4.2823617998       -8.0367510215
 H         5.1808723759       -5.9975274473       -7.7004671538
 H         6.1988912319       -4.6533547857       -6.9669377080
 H        -0.9475604311       -7.2759145339      -10.2953924567
 H        -2.2808209383       -6.5820858695      -11.0553226032
 H        -2.1823847543       -6.4438782795       -9.2883841108
 H         0.6841212732       -6.5526467813      -11.4276181655
 H         1.1039182263       -4.8706454986      -11.8534470582
 H        -0.3549895478       -5.6456138274      -12.5420855059
 H        -3.5234930274        0.9603893085       -8.6872940227
 H        -4.7349495010       -0.1696453265       -8.8380752788
 H        -5.1260462147        1.3070110613       -9.4567364767
 H        -5.0562629699       -1.5715808858      -10.4879352805
 H        -4.4931184680       -1.2794784983      -12.1866241146
 H        -5.7300741442       -0.3274169805      -11.5062549003
 H        -3.6738393940        3.4786517224      -17.2290929780
 H        -2.9613598623        2.3021936864      -16.1890883400
 H        -3.6351091911        3.6927737488      -15.3923896676
 H        -6.0893014959        4.1077200634      -15.3166836766
 H        -7.2053547191        2.8147890461      -15.8380938624
 H        -6.3733474198        3.6937483170      -17.1324031797
 H        -7.9280722351       -2.7768870161      -17.6690506256
 H        -8.9162982245       -3.6179434355      -18.8588189344
 H        -9.3433950536       -1.9971844171      -18.1178939597
 H        -7.0397557337       -3.7620947907      -20.5291440968
 H        -6.8478092535       -2.3479041900      -21.4209986208
 H        -8.4091885458       -3.1139520512      -21.2770656623
 H       -10.5664498311        3.1742584849      -20.4283287425
 H       -12.2253632568        2.8733815153      -20.4974264123
 H       -11.4063716022        4.2432812356      -21.6225418566
 H       -11.2626340274        3.4170971381      -24.1729507859
 H       -12.7585297455        2.8142363320      -23.4032224413
 H       -11.6871420326        1.6872777812      -24.3163977083
 H        -5.5181879078        2.4022729704      -26.2167319860
 H        -3.8766459444        2.8562079002      -25.8410485308
 H        -5.1522793443        3.9998184837      -25.5196707039
 H        -4.1372183059        0.6962865923      -22.6641269052
 H        -3.0621916684        1.2579142136      -23.9229087632
 H        -4.3906445097        0.1787045532      -24.2442078616
 Na       -5.8061537460        1.2819187518      -20.5834141353
 Na       -0.6408425074       -1.6898266280       -7.3717241666
