232

 C        -4.6663259026        4.6514239863      -23.4811531814
 C        -4.7261586871        3.1643958900      -23.0685618878
 O        -4.6630916846        2.8402183474      -21.8621265692
 C        -5.0499998471        2.0942898561      -24.0682021832
 C        -6.6161562752        1.8817246523      -23.7524480076
 O        -6.9311108622        1.1784928695      -22.8238388822
 C        -7.6252932091        2.3827193073      -24.7190067466
 C        -9.0463846321        2.0872711734      -24.4008696587
 C        -9.4508959942        2.6307866018      -22.9381414720
 O        -8.7001963550        3.3105268927      -22.2837147498
 C       -10.9463425434        2.4082517357      -22.3005626624
 C       -11.0571694316        0.8774078885      -22.1582356792
 O       -11.1513519617        0.2514887296      -23.1823153864
 C       -10.8278151583        0.1475753550      -20.7410052783
 C        -9.9463896188       -1.1175242304      -20.7780500242
 C        -8.4286695806       -0.9194976011      -20.2582129116
 O        -8.0855034533        0.2465180875      -20.2734594158
 C        -7.5745158207       -2.0275618003      -19.5828408222
 C        -6.1816798065       -1.3364514366      -19.0194212274
 O        -5.3717794792       -0.9691642043      -19.8401806929
 C        -6.0742817164       -1.2527559004      -17.4637992848
 C        -4.9690587520       -0.1788761726      -17.1339179433
 C        -5.4176439023        1.2883940956      -17.2655536636
 O        -5.8196429389        1.7182477273      -18.3451434781
 C        -5.1179404818        2.4122901689      -16.1401694042
 C        -5.3679940667        1.8397619357      -14.6473020421
 O        -5.7655727410        0.7115233899      -14.5184164935
 C        -4.9481644341        2.7405273738      -13.4600955360
 C        -5.0644385942        1.9326928046      -12.0750205390
 C        -3.7654347859        1.0834923700      -11.8241303540
 O        -2.6993076285        1.3660524644      -12.3238451736
 C        -3.8394205412        0.0764302755      -10.6591900170
 C        -2.5084098524       -0.6702685382      -10.4473477352
 O        -2.0723154191       -0.7862291696       -9.3268724849
 C        -1.7299937118       -1.3103554866      -11.6790235510
 C        -0.8826018326       -2.4924530843      -11.2517854721
 C        -1.6364688811       -3.8580268968      -11.1741290343
 O        -2.6724116057       -4.0629093363      -11.7422522100
 C        -0.6999082404       -4.9547216554      -10.3602631436
 C        -0.0424891220       -4.5270663210       -9.0436628989
 O        -0.4540556249       -3.6600866762       -8.2649179257
 C         1.0630516971       -5.5260056248       -8.4282245004
 C         2.1001031879       -4.7069181499       -7.7036741595
 C         2.8583794620       -5.3607240499       -6.6392429639
 O         2.3335828363       -6.2840644093       -6.0211554628
 C         4.0509211560       -4.7041153709       -6.1406889795
 C         3.6132537265       -3.2230732678       -5.7630862177
 O         3.7305297110       -2.3872031830       -6.6122204507
 C         2.9505482996       -2.6969137237       -4.4145050208
 C         2.8332481373       -1.2047979616       -4.5356524242
 C         1.9584719166       -0.8314470113       -5.7244032865
 O         1.1738877458       -1.6129571723       -6.2170439830
 C         2.0597967631        0.6845871131       -6.2445613649
 C         0.6706827324        1.3129028885       -6.2064590697
 O        -0.3534614024        0.6933970735       -6.5518801387
 C         0.4974132563        2.7928354940       -5.8874369527
 C        -0.7844914458        2.9904560790       -5.0756694188
 C        -0.7024219079        2.1463694307       -3.8498124417
 O         0.2437943037        1.4232851409       -3.5929788181
 C        -2.0551384158        2.1215322134       -2.8904500122
 C        -3.0423572856        1.2336735321       -3.7748112872
 O        -4.0647812614        1.6270908713       -4.2595627727
 C        -2.7497248487       -0.2413494569       -4.0494726851
 C        -3.2985930595       -0.6738035888       -5.4804821675
 C        -3.3525179399       -2.2383696176       -5.6161048246
 O        -2.7324544511       -2.6026522481       -6.5961573881
 C        -4.3279622811       -3.2034619243       -4.8137662063
 C        -3.4031079212       -3.8210743840       -3.6057522429
 O        -3.6044543486       -3.4296435727       -2.5019906566
 C        -2.2893717247       -4.9189821397       -3.8095299953
 C        -2.1057270759       -5.5821435302       -2.4309915738
 C        -1.1602352515       -4.8805840493       -1.4611034052
 O        -0.3818359581       -4.0299107031       -1.7460214159
 C        -1.2081483764       -5.4259441869        0.0411187460
 C        -2.5196709417       -5.0057115104        0.9231914365
 O        -3.3117762383       -4.2713851151        0.3536438152
 C        -2.7895099271       -5.8616449095        2.2329948717
 C        -3.7722929219       -7.0290085313        2.0198680302
 C        -3.2843198257       -8.2238146095        2.8790992877
 O        -2.0940770707       -8.3330937946        3.1812000188
 C        -4.2488514063       -9.3335966729        3.4298996238
 C        -4.6822107047       -8.6247263264        4.9249285304
 O        -5.2186434152       -7.5266518236        4.9465270920
 C        -4.3997797070       -9.3497005159        6.1988263290
 C        -5.5698781667       -9.5259406338        2.5776626972
 C        -3.5332726675      -10.6724489250        3.5348562964
 C        -0.9244980844       -6.9274030733        0.1052205994
 C        -0.1184289132       -4.6603048956        0.8115966218
 C        -5.4919787985       -2.3768642608       -4.2220188714
 C        -4.9352597492       -4.3665844081       -5.6331584960
 C        -1.8522023158        1.4336966677       -1.5117717622
 C        -2.7815764063        3.4992488240       -2.6374222313
 C         3.0233449750        1.5381233512       -5.2747787991
 C         2.5655328299        0.7166407687       -7.6669828805
 C         4.4458679415       -5.4551548724       -4.7769924124
 C         5.2148476236       -4.6869312217       -7.2088066287
 C        -1.7747381058       -6.1371100677       -9.9143511273
 C         0.3463173045       -5.6846673438      -11.3870854468
 C        -4.1351203416        0.8669750085       -9.4156057275
 C        -4.9225782377       -1.0822949356      -10.8211370442
 C        -3.5874112955        2.8116079381      -16.4098636758
 C        -6.1516451514        3.6111045587      -16.3733187864
 C        -8.5373275048       -2.6721594485      -18.4837259005
 C        -7.0331333171       -3.1250489809      -20.4461479479
 C       -11.0279221084        3.1484874652      -20.9482041094
 C       -11.9744348133        2.9842406371      -23.2843608851
 C        -4.8698321998        2.7990027319      -25.5004827975
 C        -4.0754611384        0.8579514161      -23.8790884003
 H        -3.7214154628        4.7579702978      -24.1079665449
 H        -4.8267188253        5.3214157036      -22.6132400587
 H        -5.5066064835        4.9582814848      -24.1712912597
 H        -7.4255701100        1.9995510841      -25.7609743025
 H        -7.5729634170        3.4695530879      -24.8750411233
 H        -9.3778167031        1.0275074666      -24.4226770895
 H        -9.7587847514        2.6399280283      -25.0775150125
 H       -11.8522144862        0.0058034651      -20.2676206510
 H       -10.2517033568        0.7438148860      -20.0352919878
 H        -9.8759121870       -1.6523693770      -21.6919752026
 H       -10.4027843445       -1.9627874838      -20.2167467434
 H        -5.7313329494       -2.3023726693      -17.0734443831
 H        -7.0621459330       -0.8814687643      -17.0964012598
 H        -4.2216402317       -0.3519317016      -17.8896038952
 H        -4.4588476926       -0.4165767132      -16.1849462667
 H        -5.5394655103        3.6267416533      -13.5834751926
 H        -3.9509907277        3.0450925995      -13.6818347702
 H        -5.8763859330        1.2495169709      -11.9923146035
 H        -5.1337029014        2.6260330124      -11.2395803133
 H        -1.0894728684       -0.5660132799      -12.2042824169
 H        -2.5999856177       -1.4233502927      -12.4144360085
 H        -0.2946458681       -2.1766793984      -10.4077823609
 H        -0.1518397344       -2.7342241163      -12.0459905923
 H         1.5495517479       -6.1245560487       -9.2160834126
 H         0.4897515221       -6.0805827956       -7.8480100689
 H         1.4586571393       -4.0107762480       -7.1002961282
 H         2.7071523641       -4.1044891954       -8.3788941117
 H         3.4479538290       -3.0836569932       -3.4912960015
 H         1.9431309478       -3.0958661663       -4.3712648979
 H         3.8661619248       -0.7526982051       -4.6259684910
 H         2.3236704227       -0.8233500862       -3.6596849812
 H         0.4492149274        3.2784254427       -6.9408545441
 H         1.3729441767        3.1187200794       -5.4098664096
 H        -1.5679059617        2.6151222352       -5.6421611126
 H        -0.8595426120        4.0798548156       -4.8801837621
 H        -3.2560123924       -0.9171476614       -3.3314873237
 H        -1.6002665081       -0.5086065195       -4.0450270033
 H        -2.6581930584       -0.3340321213       -6.2765636276
 H        -4.3009854721       -0.2175166842       -5.6323775035
 H        -1.3316227557       -4.6076809561       -4.2186365724
 H        -2.8086349165       -5.7172751333       -4.4685342245
 H        -1.7980080508       -6.6484128072       -2.5521429853
 H        -3.0341819693       -5.6819517642       -1.9443402138
 H        -3.2513139343       -5.2527405682        3.0631432248
 H        -1.9058852193       -6.1264335987        2.8052630142
 H        -3.7794911954       -7.3853477361        0.9807942144
 H        -4.7775960666       -6.6627053051        2.1700167056
 H        -5.3198615690       -9.3876092792        6.7369337150
 H        -3.8059416562       -8.6369158701        6.8369192359
 H        -3.9218641163      -10.3489742506        6.2329311389
 H        -6.1187869681       -9.9907316428        3.3357629459
 H        -5.4210949350      -10.1112942568        1.6655923707
 H        -6.0461343354       -8.5413826777        2.3878600176
 H        -2.4527789753      -10.5511156939        3.6783088336
 H        -3.7365526530      -11.2665205477        2.6539814368
 H        -4.0287088691      -11.0530515815        4.4146598835
 H        -0.2624674410       -7.3017367861       -0.6872189914
 H        -1.8761577054       -7.5431263765       -0.0337147947
 H        -0.3286086551       -7.0397435143        1.0011864757
 H         0.8388993048       -4.6916657805        0.3521291262
 H        -0.0721262912       -5.1127037006        1.8187828527
 H        -0.4040126281       -3.6654315722        0.9491984417
 H        -5.1170773133       -1.6842692096       -3.4607661277
 H        -6.3679641036       -2.9740112520       -3.8339389116
 H        -5.8767977111       -1.9016049740       -5.1114889563
 H        -5.5815474549       -4.8893167761       -4.8964351132
 H        -4.2656620359       -4.9930427180       -6.1634163544
 H        -5.6619618758       -3.9321642475       -6.4068573752
 H        -2.8102321030        1.0226975316       -1.2491956436
 H        -1.6064372919        2.2054110833       -0.7663865653
 H        -1.1549648061        0.5877638621       -1.4088386075
 H        -3.0411795594        3.9498587225       -3.6079123915
 H        -2.0384140006        4.0758013459       -2.1762290871
 H        -3.7208516519        3.2414861976       -2.2095392913
 H         3.2916528620        2.5112793636       -5.7857515276
 H         3.9615029040        0.9621923690       -5.3810538446
 H         2.7047327278        1.6918088440       -4.2490497811
 H         3.6328731935        0.9750245509       -7.7047224957
 H         2.0312955180        1.5352506392       -8.0369913450
 H         2.1654908036       -0.1812270868       -8.1740029721
 H         4.9415335577       -6.3889537816       -5.0364277193
 H         3.5039941148       -5.7907065663       -4.2672145869
 H         5.0827543906       -4.8290920688       -4.1681862862
 H         5.0276277229       -4.0466397069       -8.0385032936
 H         5.5927364534       -5.7634743699       -7.5196871098
 H         6.1005694233       -4.2960858786       -6.7287316959
 H        -1.3712723375       -6.8514474733       -9.1423337996
 H        -2.0745985680       -6.5934745861      -10.8034177710
 H        -2.5919326789       -5.5837597555       -9.3732915129
 H         0.4954338574       -6.6449878556      -11.0661533948
 H         1.2706920235       -5.2036893113      -11.4764105339
 H         0.0217982552       -5.8749792866      -12.4600805372
 H        -3.6635707569        1.8540259260       -9.4700477034
 H        -3.7851243882        0.3862045351       -8.4946631012
 H        -5.2149721914        1.0036092487       -9.1896462909
 H        -4.5957973130       -1.9148084480      -10.2027477678
 H        -4.8477760560       -1.4013375491      -11.8757354256
 H        -5.9912185807       -0.7921234989      -10.5564623286
 H        -3.3327403898        2.4231407075      -17.3846060094
 H        -3.0971690235        2.3330001320      -15.5255346881
 H        -3.5124598044        3.9128476876      -16.3185190866
 H        -6.0728085881        4.2170189576      -15.5117831251
 H        -7.1223150096        3.1166960104      -16.2977989232
 H        -6.0358355832        3.9967090555      -17.3619365037
 H        -8.1185067275       -3.5863568181      -18.2299383995
 H        -9.6245287467       -2.9758256538      -18.8358153377
 H        -8.5679132737       -1.9845269390      -17.6263105958
 H        -6.2134822034       -3.6517931601      -19.8501714282
 H        -6.5755925435       -2.7733391898      -21.3874185154
 H        -7.6810956251       -4.0325421795      -20.7360083080
 H       -10.3418433491        2.8032066165      -20.2430979148
 H       -12.0299588552        2.9917851048      -20.5935297299
 H       -11.0246664272        4.2390317291      -21.0687742071
 H       -11.8894742109        4.0528985094      -23.2103915178
 H       -12.9802647360        2.6430533620      -23.1548468754
 H       -11.6354403786        2.8166723831      -24.2980679741
 H        -4.9071700245        2.0907615838      -26.3033443218
 H        -3.9077474263        3.2401412130      -25.5344733735
 H        -5.5241181637        3.6578786322      -25.6913316950
 H        -4.3473741947        0.3160951558      -22.9178094589
 H        -3.0104280330        0.9912200293      -24.0280313002
 H        -4.3829295788        0.0684841528      -24.5447966866
 Na       -5.8991140887        1.1372658526      -20.7375915379
 Na       -0.8631172843       -1.4956926886       -7.5250291646
