232

 C        -4.6091792658        4.6375238025      -23.3740614810
 C        -4.6782056818        3.1756992837      -23.0216648156
 O        -4.6172306763        2.8710456376      -21.8860166406
 C        -5.0622865501        2.0648205387      -24.1239785379
 C        -6.6035142947        1.7623638166      -23.8945212351
 O        -6.9428876121        1.0788484766      -22.9407338202
 C        -7.7037110147        2.4918630462      -24.7478061060
 C        -9.2032948256        2.1101842228      -24.3980405888
 C        -9.5819522455        2.5950908413      -22.9860112801
 O        -8.7555538922        3.3197707966      -22.4976458293
 C       -10.9944198419        2.4030273862      -22.2124009209
 C       -11.0944847899        0.8507352924      -22.1608971914
 O       -11.2496169681        0.2121391751      -23.1737890023
 C       -10.8334470305        0.1814899129      -20.7730583830
 C        -9.9261231710       -1.0860861690      -20.8195619020
 C        -8.5125667621       -0.8303462324      -20.2486290412
 O        -8.0704806124        0.2896037414      -20.2587626338
 C        -7.5272940154       -2.0695567814      -19.5011545285
 C        -6.3405447224       -1.3453257385      -18.9573483955
 O        -5.4509599672       -1.0614179778      -19.7834273846
 C        -5.9963418397       -1.2026574873      -17.5159075829
 C        -4.9005264352       -0.1105575453      -17.0842421100
 C        -5.4476950433        1.2918504127      -17.2517635324
 O        -5.9930002649        1.5924090290      -18.2577278008
 C        -5.1375774463        2.4101947655      -16.1310226380
 C        -5.3280091637        1.8666120838      -14.7206416245
 O        -5.7795091355        0.7479433193      -14.6099679893
 C        -5.0424446209        2.7344369101      -13.4786851722
 C        -5.2588755723        1.9069601967      -12.2327901052
 C        -3.9355685755        1.1945121383      -11.7901823735
 O        -2.9117238910        1.4730800460      -12.3481839513
 C        -3.9130846518        0.1313582460      -10.6427137510
 C        -2.4718401422       -0.6138095602      -10.5689236165
 O        -2.0474803370       -0.8155490492       -9.4529981121
 C        -1.7451914338       -1.2429445568      -11.7645011324
 C        -0.8086527612       -2.3398434879      -11.2077124946
 C        -1.4565197146       -3.8491018371      -11.1996653962
 O        -2.5417701610       -3.9750132025      -11.6905850845
 C        -0.8091566236       -5.0384383181      -10.3330693953
 C        -0.1318923665       -4.6265253327       -9.0504790240
 O        -0.4450806050       -3.5437451257       -8.5751580202
 C         0.9664031447       -5.4614229694       -8.3891101255
 C         2.0869642614       -4.6705024913       -7.7614599552
 C         2.7214499861       -5.4422305881       -6.5425447193
 O         2.4404332586       -6.4668220880       -5.9989428594
 C         4.1255652249       -4.6031615347       -5.9499926435
 C         3.6915050330       -3.1776903109       -5.8172401515
 O         3.8243002887       -2.3618469844       -6.7531831805
 C         2.9731136486       -2.7973767488       -4.5037321293
 C         2.7824186849       -1.3225826359       -4.4973458730
 C         1.9369603580       -0.8139142985       -5.6760554538
 O         1.1143433070       -1.5749581229       -6.1273281780
 C         2.0544695426        0.6500019860       -6.2359524435
 C         0.5561177438        1.3787774252       -6.2394746007
 O        -0.3962098101        0.7197442430       -6.5902795113
 C         0.4251416209        2.8657546786       -5.8887232332
 C        -0.8893068615        3.1011815562       -5.0388979557
 C        -0.7858345291        2.2328014792       -3.7509139751
 O         0.2085801683        1.5323924762       -3.5880710865
 C        -2.0951812491        2.1000308278       -2.8469321182
 C        -3.0239716811        1.2134919411       -3.8408930975
 O        -3.9225676308        1.7136406921       -4.4535194253
 C        -2.6647697519       -0.3350274645       -3.9178042116
 C        -3.2782776082       -0.7759465851       -5.3228289433
 C        -3.4235081840       -2.2592935627       -5.7192039035
 O        -2.7372947681       -2.7378226863       -6.6381545798
 C        -4.3048662088       -3.1152236035       -4.8510722677
 C        -3.4336367544       -3.7356911278       -3.5490183138
 O        -3.6852313325       -3.2622161674       -2.5228323440
 C        -2.4280179904       -4.8020620662       -3.7561312696
 C        -2.1178616643       -5.5445477482       -2.4139700047
 C        -1.0976059949       -4.8409252437       -1.4203007765
 O        -0.2578487138       -4.0947037541       -1.8523538736
 C        -1.0396865579       -5.4408571049        0.1307464816
 C        -2.5194008912       -5.2275755677        0.7687327888
 O        -3.2055525332       -4.2753183426        0.4496488143
 C        -2.7818869300       -5.9056253529        2.0453319810
 C        -3.6814573361       -7.1492737691        2.0372276700
 C        -3.1406726740       -8.3348408059        2.8492696768
 O        -1.9665662867       -8.4448277802        3.2348237633
 C        -4.3034424627       -9.3960492054        3.5169324486
 C        -4.7102484631       -8.6795535851        4.8514007790
 O        -5.3249998393       -7.6139271453        4.7797295185
 C        -4.3697325872       -9.3556918787        6.1154770324
 C        -5.4663074954       -9.5297915583        2.4367142727
 C        -3.6283987213      -10.7430926100        3.6773391978
 C        -0.8114007544       -6.9560241471        0.1342605147
 C         0.0647893156       -4.7501244295        1.0517127750
 C        -5.4110715720       -2.3159283966       -4.1870043819
 C        -4.9963330694       -4.2922213440       -5.6155688491
 C        -1.8224299088        1.3365594983       -1.6037489186
 C        -2.6296123316        3.5321048211       -2.5907285237
 C         3.1617867073        1.4036870721       -5.3598113910
 C         2.5596146412        0.8082718085       -7.7406944816
 C         4.5067951259       -5.3659601401       -4.6315964888
 C         5.1545988402       -4.6046882672       -7.0672915899
 C        -1.8207472230       -6.1181109187       -9.8966525360
 C         0.1778191820       -5.7001915133      -11.2718029105
 C        -4.2374068575        0.8582215758       -9.2460759624
 C        -4.9989530417       -0.9563541158      -10.7317984929
 C        -3.6448832379        2.7654785551      -16.3734452832
 C        -5.9879053768        3.6623804068      -16.3638415474
 C        -8.2948196879       -2.7472328285      -18.3277734946
 C        -7.0440769451       -3.2172456526      -20.5192397098
 C       -10.8718729394        3.1275436751      -20.8332254379
 C       -12.0155783963        3.0555792587      -23.1295451773
 C        -4.7325550983        2.6798104713      -25.5520623763
 C        -4.2219437438        0.8700104278      -23.7910637469
 H        -3.8257226843        4.7845388647      -24.2129404836
 H        -4.5349638500        5.2428245274      -22.4462632029
 H        -5.5629977176        4.9885096973      -23.8093151221
 H        -7.6696226094        2.4124716724      -25.9014170398
 H        -7.5401396534        3.6219807514      -24.6014201549
 H        -9.3349176940        0.9666935418      -24.4301498212
 H        -9.9870221020        2.5134299192      -25.0383511860
 H       -11.8461531963        0.1374934908      -20.3178038025
 H       -10.2517231292        0.7999171069      -20.1172419260
 H        -9.8116257973       -1.5521877455      -21.8117499113
 H       -10.3041174030       -1.9794148943      -20.3594722199
 H        -5.5710306673       -2.2286867096      -17.2002853750
 H        -6.8773454217       -0.8918879326      -16.9709988711
 H        -4.0242145226       -0.2012203814      -17.6648861599
 H        -4.6132906834       -0.3893573857      -16.0389363781
 H        -5.8036136920        3.5533997378      -13.5915373720
 H        -4.0919024195        3.1835450552      -13.5411915859
 H        -6.0912556062        1.1642697509      -12.3055484807
 H        -5.5066662124        2.5818353756      -11.4230640545
 H        -1.1194780747       -0.4457156372      -12.2636378840
 H        -2.5297430827       -1.4312702832      -12.4972229055
 H        -0.4157320490       -1.9800466289      -10.2227874099
 H         0.0130470685       -2.3711497425      -11.7916965230
 H         1.4499846656       -6.0383210815       -9.2428005068
 H         0.3886445874       -6.1192159810       -7.6901324754
 H         1.6818294694       -3.7289289092       -7.4193995579
 H         2.8577286361       -4.4981206301       -8.4803576801
 H         3.6027712079       -3.1374158182       -3.6488797482
 H         2.0403397408       -3.4247764024       -4.4563301277
 H         3.7966913616       -0.9203295230       -4.5243327646
 H         2.3000864264       -0.9749534220       -3.5713972602
 H         0.3995427925        3.3174091697       -6.9310021478
 H         1.3553845232        3.1132907281       -5.4224641734
 H        -1.6915601315        2.7548752604       -5.6598269975
 H        -0.9670760277        4.1158618951       -4.8395680999
 H        -3.1128040477       -0.9343852976       -3.0874178812
 H        -1.5552492406       -0.4818199996       -3.9404353480
 H        -2.6845658116       -0.2192103260       -6.1035871518
 H        -4.2710632538       -0.3622099916       -5.3398199387
 H        -1.5540396462       -4.2555977205       -4.0473577391
 H        -2.7091439970       -5.4941259509       -4.5346710720
 H        -1.6701320823       -6.4945782463       -2.5857132024
 H        -3.0479814401       -5.7876875873       -1.8981607851
 H        -3.2405663142       -5.1484930339        2.6926497466
 H        -1.8962099162       -6.0572898003        2.6388146291
 H        -3.9460611394       -7.5084076698        0.9831353577
 H        -4.6382276628       -6.8772322065        2.4303562825
 H        -5.2504285467       -9.2195985291        6.7749270227
 H        -3.6011154597       -8.8109828060        6.6553601515
 H        -4.1205975753      -10.4086047242        6.1306120113
 H        -6.2383159250      -10.1507837917        2.9116098250
 H        -5.0007993537       -9.9732336049        1.5763182107
 H        -5.8044448765       -8.5401368922        2.1440984379
 H        -2.5848176070      -10.6194380416        3.8391422946
 H        -3.8333856383      -11.3780550052        2.8001036511
 H        -4.1663462357      -11.1537359728        4.5723497562
 H         0.0418738167       -7.3819527045       -0.4612082609
 H        -1.7628506178       -7.3468293686       -0.2983305969
 H        -0.5484392838       -7.2489788035        1.0984457953
 H         0.8512696900       -4.6326981799        0.2591841601
 H         0.4285323813       -5.3255461242        1.8860789325
 H        -0.2120720149       -3.7338850459        1.3578909711
 H        -4.9449665106       -1.4426687823       -3.7010918767
 H        -5.9742826328       -2.8957981276       -3.4217040380
 H        -6.1198031163       -2.1143020608       -4.9291816820
 H        -5.8137973379       -4.6840998528       -4.9411844568
 H        -4.2691349572       -5.0677536711       -5.9500655882
 H        -5.4631308683       -3.9353001864       -6.5254344078
 H        -2.7184995565        0.9558602045       -1.0830358055
 H        -1.2750456147        2.0366689856       -0.9716445537
 H        -1.1711083076        0.4955912230       -1.7267642956
 H        -2.8023311192        3.9806302264       -3.5391882359
 H        -1.9227610536        4.1220754559       -1.9695710965
 H        -3.5794803037        3.2938070476       -2.3060063148
 H         3.4447235086        2.3574425959       -5.8984121071
 H         4.0240068027        0.7607606975       -5.3906729312
 H         2.8368276914        1.6627925236       -4.2749135319
 H         3.6170809025        0.9140167937       -7.6618772333
 H         2.1600256993        1.7313115513       -8.1981730564
 H         2.2147389592       -0.0497777256       -8.2405796030
 H         5.0511395717       -6.2728183388       -5.0150115965
 H         3.6545921644       -5.7822875472       -4.2291459670
 H         5.1485468823       -4.8120388259       -3.9228437597
 H         4.6430916892       -4.0331645697       -7.8638091538
 H         5.4338414236       -5.6381365756       -7.3888329899
 H         6.1221443331       -4.0950638286       -6.9689191663
 H        -1.1941677559       -6.6242855825       -9.1511205982
 H        -2.1791488906       -6.7927513302      -10.6697665340
 H        -2.5589527517       -5.6936712931       -9.3047340968
 H         0.2601536366       -6.7808334564      -11.1522915858
 H         1.1629006454       -5.2106365425      -11.1852213693
 H         0.0058013141       -5.6684144191      -12.3114812888
 H        -3.8628352636        1.9468525290       -9.3465582718
 H        -3.6631238248        0.4467453986       -8.4677216543
 H        -5.2334333266        0.8554412153       -8.8476399594
 H        -4.7552749411       -1.7060401015       -9.9914873327
 H        -4.9907558982       -1.4545558517      -11.7224688527
 H        -5.9071337101       -0.5010576325      -10.4911394268
 H        -3.4444028831        2.7461935819      -17.4190664392
 H        -3.1080963199        2.1333807824      -15.7271045786
 H        -3.6303467044        3.8285653872      -15.9735361189
 H        -5.7237778352        4.4214856598      -15.6017235507
 H        -6.9527888305        3.3540347268      -16.1827726947
 H        -5.8733948304        3.8238060914      -17.3629379364
 H        -7.6965105570       -3.5717665075      -18.0224028725
 H        -9.1580595846       -3.2262366026      -18.7145622543
 H        -8.5582991833       -2.0350958121      -17.4872148385
 H        -6.5214120044       -4.0574768932      -20.0511846763
 H        -6.3922565059       -2.8038210733      -21.2868226545
 H        -7.8826150720       -3.7623705221      -21.1153835997
 H        -9.9107501159        2.8773924676      -20.3962736262
 H       -11.7617800030        3.0119172259      -20.1820978152
 H       -10.9439938551        4.2358240916      -21.0250274076
 H       -12.0132541710        4.0814365023      -23.0153115721
 H       -12.9906633160        2.6739076187      -22.8323150970
 H       -11.8572335615        2.9263216810      -24.2009932520
 H        -5.0130861422        2.0732578799      -26.3776733268
 H        -3.6775596232        2.8489909840      -25.6354263271
 H        -5.1721910294        3.7224390844      -25.5785816073
 H        -4.3804976055        0.5180354525      -22.7878513459
 H        -3.1509509918        0.8819250270      -24.1032212800
 H        -4.6125310834        0.0490997843      -24.3291452540
 Na       -5.8617090502        1.0901808431      -20.8380699917
 Na       -0.7954492240       -1.4718429186       -7.4347573480
