232

 C        -4.4010345184        4.2828369932      -23.3430860216
 C        -4.9680197633        2.9501253312      -22.9197505696
 O        -5.0268247729        2.7437679565      -21.7539254383
 C        -5.3139633649        1.9670937747      -24.0718376119
 C        -6.8482412493        1.5598529581      -23.8678469252
 O        -7.0844621088        0.9370800821      -22.8484292620
 C        -7.8479092131        2.2512710907      -24.7293702851
 C        -9.3394780735        2.1842608761      -24.3489876173
 C        -9.5081449582        2.7950825763      -22.9775699218
 O        -8.8962976062        3.8101129456      -22.7290853700
 C       -10.6254024818        2.2587764868      -22.0357368829
 C       -10.7870850532        0.7948790045      -21.8446268108
 O       -10.9423687747        0.0779825455      -22.8242536754
 C       -10.8994622531        0.0695272456      -20.4943707496
 C        -9.9344946165       -1.0847834410      -20.5107518708
 C        -8.5424969694       -0.7557749744      -20.2276504846
 O        -8.0898186145        0.3937199063      -20.2536581600
 C        -7.5826067740       -1.9498289127      -19.5470697189
 C        -6.1919306095       -1.3872217587      -19.0991859740
 O        -5.2961274523       -1.1436719805      -19.9652681901
 C        -5.9120113745       -1.1620227177      -17.6321821866
 C        -4.8512192367       -0.0211355365      -17.4258526224
 C        -5.4476231991        1.3263448520      -17.4911036326
 O        -6.1182189858        1.7560527205      -18.3962655279
 C        -5.1215176859        2.2833073176      -16.2005453221
 C        -5.7117608501        1.6331789661      -14.9079447357
 O        -6.1213989042        0.4727110838      -14.8504531106
 C        -5.5507627024        2.4833089887      -13.6511598706
 C        -5.4454455138        1.6715047037      -12.3486918995
 C        -4.0142967317        1.2402211265      -11.8938434289
 O        -2.9173707777        1.4498776568      -12.4268380737
 C        -4.0837444868        0.2830096667      -10.5801647918
 C        -2.6514525953       -0.3630245445      -10.4242105659
 O        -2.1312266185       -0.4453266732       -9.3394940327
 C        -2.0671788306       -1.0714630369      -11.6689549942
 C        -1.0490245712       -2.2055747021      -11.4011447715
 C        -1.6701253678       -3.5648322993      -11.1462698613
 O        -2.6339159745       -3.8011519237      -11.8252429236
 C        -0.9300995449       -4.7427636535      -10.2925675799
 C        -0.1199955424       -4.2531594035       -9.0863060250
 O         0.0190331238       -3.0570464857       -8.9318915557
 C         0.6307862141       -5.2265635001       -8.2376215986
 C         1.9746857259       -4.6765902912       -7.6869784014
 C         2.7505691885       -5.4058268382       -6.5192584521
 O         2.6884750071       -6.5374216623       -6.1939991537
 C         4.0194120595       -4.5892975341       -5.8852055290
 C         3.7755990774       -3.0435222750       -5.7333882369
 O         4.1250676447       -2.2457224726       -6.6200467108
 C         2.9627786243       -2.6750041472       -4.4605854865
 C         2.6526358986       -1.2258084479       -4.4534039841
 C         1.7388609014       -0.8335159614       -5.6692170299
 O         0.8027233298       -1.5663488380       -5.9184352783
 C         1.8794238684        0.6929770480       -6.3443190428
 C         0.4755245957        1.5052090594       -6.3087504020
 O        -0.5405877529        0.9554658908       -6.6812013634
 C         0.4268826862        2.9999851925       -5.9289807520
 C        -0.6800551759        3.2579032058       -4.8681523582
 C        -0.6612505986        2.2699219377       -3.7085921749
 O         0.3843257229        1.6775633483       -3.5251799480
 C        -1.9444084154        1.9693391297       -2.8574348808
 C        -2.7833929447        1.3168166795       -3.8852332530
 O        -3.3717553700        2.0125942758       -4.7143269826
 C        -2.9146229081       -0.1587425238       -3.9818837764
 C        -3.3851093778       -0.7255937933       -5.4113873392
 C        -3.3289090887       -2.2498634679       -5.4913020686
 O        -2.3064173371       -2.7677594192       -5.9910766211
 C        -4.2861106295       -3.0085727120       -4.6689214702
 C        -3.4935665869       -3.2613921766       -3.3112955159
 O        -3.8390896566       -2.6441897744       -2.2996025012
 C        -2.3525746346       -4.2489775882       -3.3933141019
 C        -2.2870164317       -5.2324709090       -2.2092584471
 C        -0.9772174952       -5.0707585857       -1.4503756847
 O        -0.1035271516       -4.3461750968       -1.9706115814
 C        -0.7944983534       -5.6907848963        0.0720020230
 C        -2.0510438026       -5.5654661772        0.9399522499
 O        -2.9909330172       -4.8810325629        0.5527912267
 C        -2.1671702449       -6.3285482702        2.2223880997
 C        -3.3257236065       -7.3664820538        2.0597670701
 C        -2.9856240406       -8.6338703803        2.8499446433
 O        -1.8450866801       -8.8281412572        3.1547723885
 C        -4.1643201249       -9.5448530336        3.3408859308
 C        -4.9148071236       -8.7809083290        4.4159111403
 O        -5.8766983474       -8.0929886787        4.1977803217
 C        -4.3624905143       -8.8874677850        5.7967933808
 C        -5.1701148889       -9.7869613716        2.0927948034
 C        -3.4510515669      -10.9247797005        3.7718547881
 C        -0.3517048179       -7.1673485923       -0.1424113320
 C         0.4085860784       -4.9404496553        0.7539536928
 C        -5.5816160793       -2.2444276175       -4.4122793037
 C        -4.6163760044       -4.3651325823       -5.2417155905
 C        -1.5982394684        1.0462288083       -1.6378744163
 C        -2.6881458525        3.3681805428       -2.4354504687
 C         3.0157153610        1.4827753285       -5.7237219170
 C         2.3021477045        0.2465513140       -7.7504480149
 C         4.3325464245       -5.3944225080       -4.6784996758
 C         5.0892530002       -4.7724707806       -6.9625730039
 C        -1.9271611873       -5.7692893907       -9.7019206603
 C         0.1138689252       -5.4793793550      -11.2768399589
 C        -4.4670812130        1.1727545536       -9.3813934539
 C        -4.9955385147       -0.9903933868      -10.6108068856
 C        -3.4984976659        2.3746584156      -16.0755683600
 C        -5.7652877735        3.7330643772      -16.3926078429
 C        -8.4152037865       -2.5527626446      -18.4836910355
 C        -7.1477796964       -3.0063841538      -20.5509531631
 C       -10.5214627601        2.9673781789      -20.6802016694
 C       -11.8959337921        2.8681471079      -22.7932670054
 C        -4.9498610559        2.5210236443      -25.4779540529
 C        -4.3638286385        0.7280024559      -23.8672172098
 H        -4.1642524230        4.3144981454      -24.4106116788
 H        -3.4569946813        4.5748540840      -22.7509002153
 H        -5.1172947869        5.0967848557      -23.0491548469
 H        -7.7427815824        1.9644619282      -25.7971821202
 H        -7.5735871698        3.3141742048      -24.9408739780
 H        -9.7271169486        1.1076878949      -24.2429119478
 H       -10.0193184093        2.7068185513      -25.0370196689
 H       -11.9023753345       -0.3311279464      -20.2383760132
 H       -10.7204664461        0.7440141521      -19.6490973128
 H       -10.0989755516       -1.6531280740      -21.4590004248
 H       -10.3343274561       -1.8600149674      -19.8772049439
 H        -5.3421175154       -2.1503720799      -17.3794890646
 H        -6.8512686444       -1.0189381947      -17.0143682636
 H        -4.1137201387       -0.1766198426      -18.1844977110
 H        -4.4176824329       -0.1203622543      -16.4081546044
 H        -6.4754805805        3.0915089624      -13.5562383897
 H        -4.7614597835        3.1567800722      -13.7958906547
 H        -6.1269516950        0.8207627180      -12.2508339200
 H        -5.7193862296        2.3223979888      -11.5517610227
 H        -1.4945501764       -0.1537889263      -12.0578494151
 H        -2.8657462543       -1.3035698395      -12.4096202827
 H        -0.3581180735       -1.9102247605      -10.5766566255
 H        -0.4953389251       -2.2627494923      -12.2602353585
 H         0.8019651315       -6.1512387880       -8.7181725073
 H        -0.0379317544       -5.3300765274       -7.2638982015
 H         1.7545337015       -3.6757635313       -7.2818231329
 H         2.7128104158       -4.6287732869       -8.4741143239
 H         3.5045235796       -2.9990178779       -3.5648437550
 H         1.9848863017       -3.1947768767       -4.6317680712
 H         3.5236789605       -0.6113675354       -4.4889215365
 H         2.1891785340       -0.9256839422       -3.4839789962
 H         0.2404489951        3.4720785575       -6.9038162139
 H         1.4357868827        3.2553478645       -5.5057356759
 H        -1.6440313495        3.2385284527       -5.3576987156
 H        -0.5272334202        4.2398822976       -4.5864720210
 H        -3.6775366607       -0.5538004645       -3.2044279107
 H        -1.8762363231       -0.5143280456       -3.7945108092
 H        -2.6605077178       -0.2509306133       -6.1174223645
 H        -4.3782428049       -0.3813030861       -5.6316104130
 H        -1.4415772040       -3.5805163788       -3.2473982954
 H        -2.2418664208       -4.7618723761       -4.3385628516
 H        -2.3854747902       -6.2614548695       -2.4091826158
 H        -2.9844361816       -4.9672853248       -1.3686941754
 H        -2.2904517263       -5.6081305354        3.0579529621
 H        -1.2875968145       -6.9842263343        2.4438568787
 H        -3.2957599308       -7.6951030711        0.9917325138
 H        -4.3106821237       -7.0077090887        2.1719014121
 H        -4.0739894605       -7.8570017580        6.1680221944
 H        -3.4926746061       -9.5042763273        5.9088484862
 H        -5.1265321793       -9.1810318264        6.5184616916
 H        -5.5258727107      -10.8496025647        1.9484175781
 H        -4.5762939693       -9.5704664309        1.2169537947
 H        -5.9088996321       -9.0102047958        2.1995323401
 H        -3.8069370678      -11.2368075516        4.7123059683
 H        -2.3781107231      -10.7385014220        3.8045225703
 H        -3.6490490473      -11.6472462929        2.9566025226
 H         0.7718020342       -7.3892960288       -0.1809952078
 H        -0.9465028765       -7.6629107912       -0.9027650255
 H        -0.6843214500       -7.7808262182        0.7103566129
 H         1.2822643653       -5.2637730947        0.2345571030
 H         0.4672139926       -5.1735663178        1.7462872110
 H         0.3353146461       -3.8794998079        0.5886595329
 H        -5.5551438944       -1.5982079691       -3.4961724393
 H        -6.4676361278       -2.8949918066       -4.4115702308
 H        -5.7331568916       -1.5649078443       -5.2728457160
 H        -4.7070618293       -5.0674874895       -4.3878162591
 H        -3.7279305179       -4.7693033433       -5.8240621673
 H        -5.5016304174       -4.3883864663       -5.8231393732
 H        -2.4877556076        0.7239654141       -1.0304404540
 H        -0.8972936385        1.6495368384       -1.0582888972
 H        -0.9808105746        0.2156823118       -1.9303437710
 H        -3.0950945019        3.7146882483       -3.3332063740
 H        -1.8849303328        4.0190719626       -2.0429395797
 H        -3.3774045255        3.1057570392       -1.6491872267
 H         3.3230983827        2.3224916167       -6.4053285345
 H         3.8596528939        0.8516087289       -5.5108052068
 H         2.7445682185        2.0188001312       -4.7578209528
 H         2.9540985459       -0.6095258449       -7.7002745903
 H         2.8402217254        1.1618603271       -8.1624295571
 H         1.4132253415       -0.0253976594       -8.2819032038
 H         4.5126968882       -6.4638541673       -5.0003805561
 H         3.5674138893       -5.4304499912       -3.9606889999
 H         5.3245151513       -5.0827864595       -4.2625292863
 H         4.7664699398       -4.1863338572       -7.9015966414
 H         5.3192567618       -5.7259090447       -7.2563114208
 H         6.0157968693       -4.1856345608       -6.6835889721
 H        -1.3331435331       -6.5922468621       -9.3279358697
 H        -2.5652849315       -6.0946134835      -10.6078036841
 H        -2.6248579494       -5.3715574939       -8.9813331396
 H         0.9364366019       -6.1096658334      -10.9064665575
 H         0.5431794687       -4.8500597613      -12.0410941542
 H        -0.3943193392       -6.1192071476      -11.8490426257
 H        -3.5731945124        1.6669484921       -8.8934071683
 H        -5.0007228283        0.6373582197       -8.6094758556
 H        -5.0732476006        2.0333693578       -9.7272722011
 H        -4.5759321264       -1.7333431064       -9.8755654594
 H        -4.9530657476       -1.5602765840      -11.5630624981
 H        -5.8803295355       -0.5657199241      -10.2245026655
 H        -3.2605356254        3.4485481972      -15.8489932071
 H        -3.1431370202        2.0313686528      -17.0482796491
 H        -3.1565225226        1.7885191094      -15.1842215013
 H        -5.4980930867        4.3456238469      -15.5065729151
 H        -6.7921689336        3.6292678873      -16.5843284128
 H        -5.1825036265        4.0344815826      -17.2349410264
 H        -7.8161879544       -3.3812856054      -17.9453683240
 H        -9.2160508511       -2.9612470519      -18.9887287042
 H        -8.7834881592       -1.8121736517      -17.7331850067
 H        -6.1491775494       -3.5397106625      -20.3943457122
 H        -7.0284193545       -2.4834441260      -21.5977032953
 H        -7.9063380139       -3.7324018727      -20.7872972986
 H        -9.6236757480        2.6081218140      -20.2156385587
 H       -11.4264694250        2.8525894083      -20.1681146818
 H       -10.3419701087        3.9972289862      -20.7645356022
 H       -11.6895432958        3.8614294161      -23.1442324957
 H       -12.7403232157        2.9634383710      -22.0804970126
 H       -12.1999062233        2.2887892680      -23.6658271718
 H        -5.0833357231        1.8498324458      -26.2873916511
 H        -3.8863613819        2.6382558459      -25.3514370788
 H        -5.4921747511        3.4461264662      -25.6943091059
 H        -4.5223602293        0.1070935454      -23.0045201454
 H        -3.2567443390        0.9737633465      -23.8537365665
 H        -4.4228838273        0.1694716092      -24.8206437803
 Na       -6.0147040109        1.0125328917      -20.7803921382
 Na       -1.0061945139       -1.4746527331       -7.4735431063
