232

 C       -20.2939703670       -4.7469821548       -5.5463328938
 C       -20.3835491962       -5.7258906315       -4.3555245903
 O       -19.5207196617       -6.5680617441       -4.1963050795
 C       -21.5792518744       -5.4956718903       -3.2453549459
 C       -20.7334102479       -5.1307027782       -1.9444304351
 O       -20.1970686810       -5.9514453721       -1.2513371373
 C       -20.2930315084       -3.6319269462       -1.7010521996
 C       -18.9484473122       -3.4391195869       -1.0835980377
 C       -17.6860637110       -3.7178801477       -1.8995802999
 O       -17.8656832069       -4.3520981224       -2.9301291859
 C       -16.1954443590       -3.5886397584       -1.3870214555
 C       -15.9047980026       -5.0000568991       -0.8600401650
 O       -16.7152435441       -5.5589794740       -0.1532010732
 C       -14.5648659473       -5.6787015707       -1.2410908248
 C       -14.4007586707       -7.1903426430       -0.9085285010
 C       -14.9521544090       -8.0505038423       -2.0320902747
 O       -15.9133825211       -7.6149410992       -2.6407552286
 C       -14.2086996602       -9.2723045177       -2.5199433674
 C       -12.8487622954       -8.6980907115       -3.2608235082
 O       -12.9937584224       -7.7083867001       -3.8822096197
 C       -11.5653952683       -9.5983065088       -3.1341506016
 C       -10.3764804238       -9.1877881443       -4.0393229011
 C        -9.0879243082       -9.7827019048       -3.3631003626
 O        -9.1473580833      -10.3270376842       -2.2892946733
 C        -7.7459554554       -9.7928631035       -4.2669590199
 C        -7.6346707510       -8.3845285242       -4.9184450627
 O        -8.2593193012       -7.4490999200       -4.5197755816
 C        -6.8544905195       -8.3207589113       -6.3102053604
 C        -6.3768246913       -6.9587964316       -6.5888105345
 C        -7.3377712920       -6.2205685746       -7.5240687723
 O        -8.1001657939       -6.8946658348       -8.2191210866
 C        -7.2994617858       -4.6276733582       -7.7818999222
 C        -5.9915527076       -4.4057457269       -8.6895022588
 O        -4.9813940131       -3.9415121641       -8.2078271572
 C        -6.1256597553       -4.6988502140      -10.2007784252
 C        -5.4669780541       -3.7300989932      -11.1603273547
 C        -5.7980993694       -4.1257103180      -12.6169334617
 O        -6.6660930876       -4.9214331856      -12.8369160796
 C        -4.9078232424       -3.4428279055      -13.7043696370
 C        -4.0617175421       -2.2052545322      -13.2352990889
 O        -4.4460978859       -1.3697793442      -12.4336308197
 C        -2.5785286006       -1.9835930990      -13.7677192941
 C        -1.5904719911       -2.2940171040      -12.6873938618
 C        -0.0749979592       -1.9141362959      -13.0757269495
 O         0.1367194254       -1.2235130630      -14.0500578492
 C         1.1486208017       -2.5624269585      -12.1848304998
 C         2.1633905362       -1.4062893451      -12.0798358556
 O         3.2289266969       -1.4791889496      -12.6709180289
 C         1.8972959245       -0.1925324882      -11.2615143096
 C         3.1688473785        0.7162694957      -11.0152469335
 C         2.8211472558        2.1069794336      -10.4894787944
 O         1.7676235922        2.6539786856      -10.4277058822
 C         4.1548586114        2.9668089112      -10.0423046459
 C         4.4518594220        3.8269140974      -11.4108127172
 O         5.4661765877        3.5151482973      -12.0101640515
 C         3.5876876427        4.9627075968      -11.9101833495
 C         4.2809682991        6.3391862161      -11.5648854830
 C         5.4486290038        6.5951153301      -12.4769687196
 O         5.5434256257        6.1440500218      -13.6314517901
 C         6.6766281406        7.5780568718      -11.9895683923
 C         7.5374751611        7.7492738041      -13.3622583607
 O         7.3525869255        8.7079109544      -14.0735970847
 C         8.5247529631        6.5804667123      -13.6841028445
 C         9.3043284663        6.7557575166      -14.9835469352
 C         8.4840244108        6.0415405256      -16.1995785113
 O         7.5947755245        5.2151717075      -15.8637587018
 C         8.6126780598        6.4461040824      -17.6832746356
 C         8.9435730127        5.0628382294      -18.5464797030
 O         9.5526854886        4.1902532835      -18.0058191437
 C         8.7528681276        5.1204934948      -20.0701632526
 C         9.2854961128        3.8895530435      -20.7931923735
 C         8.0923488987        2.8785552688      -20.9863080078
 O         7.0290806302        3.2371093283      -21.3389139375
 C         8.3868983555        1.3492435170      -20.9082502366
 C         8.7963741154        1.0631634495      -19.3663789991
 O         9.9857543106        0.9481052286      -19.0282273387
 C         7.6998357553        1.0949647172      -18.3731808141
 C         8.3684308449        1.0268873394      -17.0202314369
 C         7.4781169205        1.3698726220      -15.6759695421
 O         7.8800695185        2.2924461736      -14.9742011706
 C         6.2263377168        0.4451721826      -15.3747289888
 C         5.0717109743        1.2844708657      -16.1217906546
 O         4.9026671488        2.4868095742      -15.8275880142
 C         4.0204088564        0.4613307380      -16.8196442974
 C         6.4140029258       -0.9770328283      -16.0436442936
 C         6.0671724811        0.4654553081      -13.8639212113
 C         7.1769230490        0.5701855688      -21.4016780692
 C         9.5766674865        0.8829953795      -21.8587502591
 C         7.3696499624        7.1783858270      -18.1694980060
 C         9.7950213329        7.3396035624      -17.8993085221
 C         6.1432849445        8.8807106714      -11.5404602305
 C         7.5106267021        6.8390072841      -10.9359625314
 C         3.7549908931        4.0835465670       -9.0159390910
 C         5.3429382849        2.1089530658       -9.6066165352
 C         0.8171667449       -3.1007541116      -10.8305459816
 C         1.6342907206       -3.7331612638      -13.0747097548
 C        -4.0751667852       -4.6150180588      -14.1913441319
 C        -5.8367859713       -2.9777052486      -14.8182650255
 C        -8.5745799694       -4.0813452868       -8.5168020475
 C        -7.0430768434       -3.9180002239       -6.4828242899
 C        -6.5402370306      -10.0923285317       -3.2995730573
 C        -7.8897777669      -10.9643191951       -5.2419119411
 C       -13.9248602066      -10.1872283918       -1.2643863333
 C       -14.9823403631      -10.0681738255       -3.5728991636
 C       -15.3457591843       -3.1150358728       -2.6513940627
 C       -16.0476531175       -2.5825451945       -0.2225571620
 C       -22.6150196736       -4.5120196395       -3.6818925063
 C       -22.2073416520       -6.8770998623       -2.9704377700
 H       -20.3663220302       -3.7038892888       -5.1329355797
 H       -21.0038550068       -5.1008065662       -6.2256732441
 H       -19.3552132836       -4.9288924432       -6.1643844556
 H       -21.0484735420       -3.3216455706       -0.9546257032
 H       -20.5259369588       -2.9773011905       -2.5270138849
 H       -18.8459851968       -4.1364973383       -0.2017711966
 H       -18.8824360130       -2.4445324320       -0.6074027261
 H       -13.7916703775       -5.1088390787       -0.7973576663
 H       -14.4157323502       -5.6454048452       -2.3418472234
 H       -15.0410325053       -7.4277719609       -0.0311304245
 H       -13.2879641852       -7.3023412353       -0.8363379243
 H       -11.9306524054      -10.6073224440       -3.2780833940
 H       -11.3201105658       -9.5985940501       -2.0803560815
 H       -10.3559933246       -8.1012862539       -4.1925377741
 H       -10.4201700724       -9.6936803742       -5.0343942858
 H        -7.5380252700       -8.6794767787       -7.0537722354
 H        -5.9891606787       -9.0081568758       -6.3214869390
 H        -5.4641996526       -7.0188665975       -7.1541667674
 H        -6.1910692596       -6.3104037132       -5.7948841765
 H        -7.1630334382       -4.7745391191      -10.5063687189
 H        -5.7117012760       -5.6867778633      -10.1717009384
 H        -4.3935852168       -3.5443018376      -11.1190202533
 H        -5.8940982424       -2.6760313002      -10.9354154923
 H        -2.5023999194       -0.8961754383      -14.0415981490
 H        -2.1977093455       -2.6408180748      -14.5270094772
 H        -1.3353510490       -3.3581307312      -12.3385806810
 H        -1.7637715041       -1.7261484823      -11.8108866393
 H         1.3467406919       -0.4710854621      -10.3254613987
 H         1.1177703240        0.3678303556      -11.8328549499
 H         3.5977691911        0.7132116132      -11.9853431960
 H         3.8829144921        0.3280779708      -10.2703268195
 H         2.6536565493        5.0178150980      -11.3676373325
 H         3.4975103116        5.0198576297      -12.9346432841
 H         4.4327767168        6.4470060675      -10.4530577176
 H         3.4422738192        7.0502649719      -11.6877335430
 H         7.9577898504        5.6054487090      -13.6691923733
 H         9.2439379120        6.4612007803      -12.8477305268
 H        10.3129206659        6.3192240672      -14.8409128810
 H         9.3748433514        7.6881530292      -15.2842443166
 H         9.3482966824        5.9676055039      -20.3994559155
 H         7.7002911044        5.3500332818      -20.2959495135
 H        10.2022306769        3.4432350250      -20.4013678526
 H         9.4904707436        4.2602074714      -21.7567559737
 H         7.0325289862        0.2334649782      -18.4542273054
 H         7.2038537332        2.0916781622      -18.5844900760
 H         9.3351238194        1.6357966720      -17.1116847903
 H         8.6961700669        0.0055642732      -16.7873263637
 H         4.3318453106        0.1405056952      -17.7769134185
 H         3.0738541049        1.0190650182      -17.0744365385
 H         3.7982752534       -0.4276073204      -16.3211567834
 H         5.5078704412       -1.5226078710      -15.5979460916
 H         7.3434287951       -1.4597180647      -15.8688103791
 H         6.3942212071       -0.9955596668      -17.1358311358
 H         5.2441935614       -0.2389357833      -13.4759297934
 H         5.8102613905        1.4566688263      -13.4886068240
 H         6.9588967493        0.0578900584      -13.4421297007
 H         7.4111165085       -0.5148997254      -21.5286264774
 H         6.9464969245        0.8307383134      -22.4462266675
 H         6.2840912673        0.7220789448      -20.7338752641
 H         9.3826816620       -0.1701661377      -21.9023244251
 H        10.5531654391        1.2027250005      -21.6480844233
 H         9.3080073827        1.2586910624      -22.8377487053
 H         7.3259169076        8.1358394440      -17.6830964431
 H         6.4485934395        6.6382363484      -18.0704938162
 H         7.4734003761        7.2808201644      -19.2686505334
 H        10.6573965464        6.9522582318      -17.4852347784
 H         9.4381827998        8.3787461170      -17.7165915829
 H         9.9319975846        7.4684646311      -19.0091855477
 H         6.9064314187        9.6448590333      -11.4855796102
 H         5.7709504974        8.8795638034      -10.4803485199
 H         5.2740770291        9.1497958132      -12.1656865522
 H         7.4088888656        7.2151414000       -9.8990102267
 H         8.5160957297        6.9667450933      -11.2460590059
 H         7.3475808484        5.7306656219      -10.9540663280
 H         4.5419600485        4.0080560582       -8.2238786983
 H         2.7398281625        4.1637665438       -8.5422312630
 H         4.1195284662        5.0021574666       -9.5360133847
 H         6.3114448123        2.6844048122       -9.6454172121
 H         5.5545520285        1.1028191486       -9.9672971605
 H         5.1018118774        1.9624095079       -8.5662838485
 H         0.1233249405       -2.5610613959      -10.1519039892
 H         1.6550350333       -3.4775116738      -10.3331655320
 H         0.1786049749       -3.9535744587      -10.9523120872
 H         1.0647239842       -4.5823389782      -12.8453503364
 H         2.6467238213       -3.9652322295      -12.8829064189
 H         1.6656244938       -3.5584296183      -14.1040783577
 H        -3.3178039555       -4.4183989500      -14.9931160981
 H        -4.7369736018       -5.3182063498      -14.7383987550
 H        -3.6518915710       -5.1144447602      -13.2807674852
 H        -5.3567232747       -2.5319148531      -15.6903073875
 H        -6.5330142056       -2.2212685341      -14.3770627449
 H        -6.3922671975       -3.9654396440      -14.9702556138
 H        -8.9662502629       -3.2898027502       -7.8856528526
 H        -9.3184508845       -4.7986695704       -8.6689079180
 H        -8.4435575726       -3.6281924795       -9.4648747845
 H        -7.9641878633       -3.7060223755       -5.9067320520
 H        -6.5310967782       -2.9909594719       -6.7526420362
 H        -6.3569656784       -4.4889318784       -5.8737109002
 H        -6.8238226426      -10.8783333571       -2.5623981385
 H        -6.1314860879       -9.2809409891       -2.7376170085
 H        -5.7924206949      -10.5180590928       -3.8964011879
 H        -7.9952608972      -11.9533522839       -4.8050552879
 H        -7.0834379172      -11.0001170374       -5.9482217044
 H        -8.8775648956      -10.9676581724       -5.7405605994
 H       -13.1503587625       -9.8417652355       -0.6161197109
 H       -13.6863040665      -11.1449548141       -1.7067240184
 H       -14.8465762882      -10.2994598888       -0.6785323539
 H       -14.9956821912       -9.4668648273       -4.5111181079
 H       -16.0366449966      -10.3689634563       -3.2438851598
 H       -14.4271063532      -11.0216384162       -3.8937145503
 H       -15.6250109549       -3.8397909657       -3.5133202384
 H       -14.3026135266       -3.2960054235       -2.3712639175
 H       -15.5444348200       -2.0643780571       -2.8369225958
 H       -16.2096391481       -3.0394487610        0.7159090390
 H       -16.7910730953       -1.6949041609       -0.3330512459
 H       -15.0412424004       -2.2215719406       -0.1869945810
 H       -21.9984210977       -3.6016022064       -3.8165190401
 H       -23.3361329720       -4.3792591575       -2.8514472683
 H       -23.2072760993       -4.9341207468       -4.4473856921
 H       -22.6235696838       -6.9474546659       -2.0198820156
 H       -21.3980538531       -7.5857412808       -3.0916421817
 H       -23.0404218874       -7.1165124308       -3.6961581557
 Na      -18.0182050190       -6.7899834341       -2.3559981968
 Na        6.2067088803        3.8895052441      -14.4023789407
