232

 C        -4.2655095259        4.3494856306      -23.2344042435
 C        -4.9216117735        3.0041910860      -22.9740547947
 O        -5.1624655259        2.7566291347      -21.7909122470
 C        -5.3000892835        1.8364944583      -24.0698915627
 C        -6.7723812218        1.5376472549      -23.7803656808
 O        -7.1876459405        0.9936153452      -22.7807522314
 C        -7.8518070902        2.0473563599      -24.7892627780
 C        -9.2573576884        1.9452476915      -24.2410106995
 C        -9.5212995654        2.7991453467      -22.9548315832
 O        -8.8409571838        3.7749860275      -22.7168027058
 C       -10.7144474697        2.3628116888      -21.9918730395
 C       -10.6243368860        0.8135452432      -21.7957835544
 O       -10.4063325258        0.1133626513      -22.7535383750
 C       -10.9691023868        0.1522662399      -20.4578610252
 C       -10.1866283295       -1.2144040617      -20.3267066515
 C        -8.6593047379       -0.9109636610      -20.1389498391
 O        -8.3816262910        0.2678876236      -20.2185215463
 C        -7.5526848529       -2.0085501540      -19.6495556001
 C        -6.2051539263       -1.3191442340      -19.2595085516
 O        -5.4366642858       -1.0297818909      -20.1202861367
 C        -5.8850128006       -1.0977082678      -17.7712150231
 C        -4.7681530821       -0.0973732054      -17.5192713428
 C        -5.2454761869        1.3904821285      -17.4749141908
 O        -5.7729185889        1.8545033271      -18.4776949920
 C        -5.0546635629        2.2280447205      -16.2213314692
 C        -5.7514287192        1.5548222859      -14.8989229208
 O        -6.2578754871        0.4806042386      -14.9844160351
 C        -5.5859136892        2.2819837722      -13.5950170852
 C        -5.6854883724        1.4315462411      -12.3862529559
 C        -4.2150708663        1.1183735614      -11.9279090586
 O        -3.3085306243        1.4588791202      -12.6294578139
 C        -4.1075715749        0.3105931931      -10.5946604749
 C        -2.6639596101       -0.4314992994      -10.3722516468
 O        -2.1213424489       -0.3707749157       -9.2819423325
 C        -2.0289864404       -1.0000183203      -11.6452186234
 C        -1.1330477185       -2.1892586663      -11.2963319489
 C        -1.7256927555       -3.5298873991      -11.0555483401
 O        -2.7695256922       -3.8408337904      -11.5881333392
 C        -0.8960667608       -4.5469871816      -10.2297307866
 C        -0.0357229642       -3.9710888563       -8.9988238861
 O         0.2161015301       -2.7814258860       -8.7628688464
 C         0.6726867204       -5.0034122848       -8.1808381173
 C         2.0272901286       -4.3452450789       -7.6659007309
 C         2.6642125297       -5.3501189228       -6.6579915908
 O         2.1441557156       -6.4498001486       -6.5354871438
 C         3.9507406320       -4.7070412916       -6.0373427774
 C         3.6602384367       -3.1178195701       -5.6958444176
 O         4.1441522388       -2.2431837279       -6.3531361063
 C         2.8043646474       -2.7244301774       -4.3372964857
 C         2.6526922821       -1.1328096349       -4.4703510679
 C         1.6616176343       -0.7858662839       -5.6168008403
 O         0.6448101606       -1.4157655343       -5.8007262234
 C         1.7566741408        0.6374303082       -6.4258035575
 C         0.4477368788        1.3733429255       -6.3464947053
 O        -0.5924282744        0.8787649444       -6.7923027348
 C         0.4923770747        2.8541695011       -5.9546286562
 C        -0.5385582970        3.1886982308       -4.8553656816
 C        -0.4726232616        2.2441043937       -3.7051013105
 O         0.5223330045        1.5865813268       -3.4381148852
 C        -1.8394962051        2.0877594683       -2.8962374966
 C        -2.7905886430        1.4309186846       -4.0609258576
 O        -3.3948790002        2.0928746558       -4.8426490501
 C        -2.9255333757       -0.1213936337       -3.9595976531
 C        -3.4805723844       -0.6934562342       -5.3467803285
 C        -3.2541413070       -2.1676388395       -5.4931643957
 O        -2.2799363428       -2.6405719262       -6.0654542328
 C        -4.3348137879       -3.0162539813       -4.6999996111
 C        -3.5943360040       -3.1595367009       -3.2537163942
 O        -3.9017054781       -2.5495704411       -2.3073359309
 C        -2.2981467170       -4.0403593613       -3.2554133680
 C        -2.2059054081       -4.9937970901       -2.0194249540
 C        -0.7588073589       -5.0516957868       -1.3148444631
 O         0.1107065004       -4.4940711424       -1.8950356262
 C        -0.6554873210       -5.7821320835        0.0599308145
 C        -1.9132117626       -5.6375291441        0.9291048989
 O        -2.8862543876       -4.9608197826        0.6165548661
 C        -1.9172281784       -6.5287447301        2.2059713478
 C        -3.1446701672       -7.4746807996        2.2448276433
 C        -2.8119841903       -8.8099735525        2.9164881383
 O        -1.6412101191       -9.1110557423        3.2500672282
 C        -4.1481937634       -9.7429784540        3.2174071274
 C        -4.9069773631       -8.8577841894        4.2638124998
 O        -6.0114996589       -8.4025595417        3.9677654160
 C        -4.3575511765       -8.5933531921        5.6028307521
 C        -4.8823055429       -9.9600877238        1.8940551308
 C        -3.7088476295      -11.0754141084        3.7856417794
 C        -0.3551777302       -7.1796673302       -0.3570038858
 C         0.5396394442       -5.0742651181        0.6608171373
 C        -5.7437359187       -2.4205818233       -4.4350965367
 C        -4.4778348776       -4.4095651309       -5.2733368760
 C        -1.6096962213        1.1136423407       -1.7341766020
 C        -2.3066302999        3.4109665662       -2.2859558820
 C         3.0221430069        1.3603108385       -5.8913890165
 C         1.9515369185        0.2347475721       -7.9006481135
 C         4.3815157294       -5.3250371495       -4.6680739864
 C         5.1441148693       -4.6993139702       -6.9578671707
 C        -1.8702498830       -5.5932654925       -9.6763756059
 C        -0.0192871683       -5.1745263268      -11.3539574263
 C        -4.3464532330        1.2439976476       -9.3713009124
 C        -5.1664791778       -0.8605993436      -10.7479144108
 C        -3.5002308584        2.2167223065      -15.9896104613
 C        -5.6878773484        3.6687361909      -16.5192273776
 C        -8.0717106248       -2.6825564022      -18.3029941980
 C        -7.3850156138       -3.0278933275      -20.7733551195
 C       -10.4309374170        3.1436144193      -20.6469983117
 C       -12.0311407485        2.9605265675      -22.5449504102
 C        -5.2611012266        2.4221093423      -25.5382031142
 C        -4.4764191193        0.6231591393      -23.8172286007
 H        -3.7786350530        4.4768571236      -24.2338678730
 H        -3.4660392151        4.4971529117      -22.5382683877
 H        -4.9490919079        5.1605960616      -23.0115004957
 H        -7.7994960208        1.6562155706      -25.8148696559
 H        -7.7785168161        3.0790754510      -25.1381010951
 H        -9.5108511913        0.9536636497      -24.0179819490
 H        -9.9897589451        2.2907180888      -24.9907798493
 H       -12.0328915992       -0.0735069310      -20.4902245710
 H       -10.8886868594        0.7263922366      -19.5510651868
 H       -10.4818037432       -2.0269224070      -20.9933319778
 H       -10.6512491798       -1.6322208350      -19.3877047202
 H        -5.7360327959       -2.0065637903      -17.2625639875
 H        -6.7689303257       -0.6709076769      -17.3699606132
 H        -4.0229991624       -0.2646415926      -18.3226966794
 H        -4.3839442595       -0.4240720115      -16.5641760839
 H        -6.2123935231        3.1603204987      -13.4727116728
 H        -4.5113523351        2.6792952964      -13.6326623526
 H        -6.0315422084        0.4115889258      -12.5734170173
 H        -6.3958168467        1.8713257361      -11.6313041790
 H        -1.4080012595       -0.2293191169      -12.0108359837
 H        -2.8616121059       -1.1497003425      -12.2963186808
 H        -0.4250643839       -1.8412310749      -10.5480009489
 H        -0.5096013505       -2.3510598980      -12.2535663555
 H         0.9463069532       -6.0028390542       -8.6906071586
 H         0.1079352237       -5.1440653380       -7.3290807957
 H         1.8241191872       -3.5110573478       -7.0241702258
 H         2.7219268693       -4.0661645256       -8.4734637696
 H         3.4995145640       -2.9065748484       -3.5043650126
 H         1.8477535972       -3.2250355170       -4.2870818895
 H         3.6133716208       -0.5658725969       -4.5240205006
 H         2.2270804855       -0.7163374037       -3.5745043348
 H         0.2138199035        3.3173216206       -6.9180969745
 H         1.4420718713        3.1433076958       -5.6730470092
 H        -1.5415560297        3.3976273459       -5.2545653981
 H        -0.2668725376        4.2787042228       -4.5369390668
 H        -3.6464293674       -0.2646170764       -3.2462497071
 H        -1.9744194752       -0.5748719645       -3.7121153357
 H        -2.8293292165       -0.1336826802       -5.9871502001
 H        -4.5291357001       -0.3621662944       -5.4989146608
 H        -1.4561545119       -3.4141161693       -3.2192225665
 H        -2.1807228861       -4.6641485635       -4.1648979609
 H        -2.6131772543       -6.0303555091       -2.1994309775
 H        -2.7310037337       -4.5813586223       -1.2079013533
 H        -1.9790182040       -5.9368600171        3.1231356973
 H        -1.0491333152       -7.1489195431        2.1077026404
 H        -3.5158753560       -7.7166314293        1.2431564126
 H        -4.0148528767       -6.8955683210        2.6990737129
 H        -3.8904849338       -7.6471076177        5.6536059553
 H        -3.6655760220       -9.3631718029        6.0074111531
 H        -5.1991011019       -8.4757579234        6.2892353142
 H        -5.7757593290      -10.4678531911        2.2176662545
 H        -4.3979516246      -10.6689784649        1.2165775091
 H        -5.2026855312       -8.9801843387        1.4978002182
 H        -4.6275196489      -11.6988487193        3.7033020867
 H        -3.4687496007      -10.9460096333        4.8450052178
 H        -2.8223965221      -11.4944407586        3.2898277105
 H         0.0389200803       -7.1206321877       -1.3212186165
 H        -1.2406781852       -7.8673826743       -0.2822685362
 H         0.3123897505       -7.7700613364        0.2279693103
 H         1.4484265657       -5.2983604315        0.0707840151
 H         0.6592253345       -5.5639870963        1.6858005258
 H         0.4026101372       -3.9950069317        0.7210874454
 H        -5.7411941279       -1.4719027102       -3.9101503414
 H        -6.2679504226       -3.1419824301       -3.7728531044
 H        -6.2896089409       -2.2740965264       -5.3446846853
 H        -4.4611661724       -5.2862871092       -4.6165838404
 H        -3.7408959666       -4.5734447952       -6.0179041360
 H        -5.4723654454       -4.3293373913       -5.8244333468
 H        -2.3884742928        0.3998692594       -1.6604558713
 H        -1.5180443797        1.6286046525       -0.7727809524
 H        -0.6413994742        0.5933760712       -1.9490537220
 H        -2.3430687646        4.0484548617       -3.1922684749
 H        -1.6205940165        3.7478706732       -1.5394439707
 H        -3.1838392940        3.1600595816       -1.7436941590
 H         3.0392522608        2.3624572499       -6.3837437031
 H         3.9398953467        0.8587356398       -6.3063445747
 H         3.1849375825        1.5230445939       -4.8139529334
 H         3.0321151528        0.1091561438       -8.0006471622
 H         1.5957233467        0.9947288169       -8.5135696095
 H         1.5148899926       -0.7399874463       -8.1586395545
 H         4.9382763526       -6.2321273194       -4.7256932558
 H         3.4866290251       -5.4895384737       -4.0114420803
 H         5.0502606084       -4.6598473320       -4.1594399380
 H         5.0548295481       -4.1609578687       -7.8557124372
 H         5.3529786046       -5.7869306777       -7.3603447031
 H         5.9769592243       -4.2911428723       -6.4289881025
 H        -1.3942230407       -6.4417220276       -9.1833518879
 H        -2.4683366785       -5.9054186959      -10.4273809165
 H        -2.5319664429       -5.0234291782       -9.0502432854
 H         0.5742769537       -6.0466854159      -11.1215606017
 H         0.7602167930       -4.5516177564      -11.8513619530
 H        -0.6842127625       -5.4768045009      -12.2676053401
 H        -3.4203771763        1.5191741063       -8.8837234477
 H        -4.8845890869        0.6635772922       -8.6203667565
 H        -4.8706964943        2.1498620533       -9.6174101715
 H        -5.0406228508       -1.4966818340       -9.9259305184
 H        -4.8641362458       -1.3521611876      -11.6336082540
 H        -6.1405934561       -0.3903507030      -10.7559363866
 H        -3.2501169798        2.5745687028      -15.0398230832
 H        -3.0874590579        2.8076868926      -16.8111521471
 H        -3.1914807710        1.1709153755      -16.0346045952
 H        -5.6222012762        4.2288141831      -15.5755631800
 H        -6.6731293316        3.3969929201      -16.8608880919
 H        -5.0804170549        4.1798131612      -17.2153568929
 H        -7.2646066522       -3.0531280896      -17.8735117374
 H        -8.8695881196       -3.4256252611      -18.5462176295
 H        -8.4835672730       -1.9548759604      -17.5983307857
 H        -6.6993655618       -3.7323201613      -20.4333115652
 H        -7.0081968324       -2.7476840956      -21.6584687754
 H        -8.3673526747       -3.5315302189      -20.9962682010
 H        -9.4622146178        2.8847795154      -20.2048355598
 H       -11.3298694113        2.9601439204      -19.9697594027
 H       -10.2953021829        4.2755892447      -20.8550524480
 H       -12.1672511405        4.0172995922      -22.2998638646
 H       -12.9240485749        2.4224911989      -22.2346785827
 H       -12.1224996341        2.7820510271      -23.6416645127
 H        -5.9074160650        1.7468308366      -26.1109257537
 H        -4.2864376169        2.4332639041      -25.9816152593
 H        -5.8850562467        3.3259935920      -25.5536387885
 H        -4.6875610961        0.3626197993      -22.7633944359
 H        -3.4334631975        0.8121635109      -23.7569576853
 H        -4.6351194644       -0.1760693470      -24.4999886768
 Na       -6.1087086479        0.9418209993      -20.5982069566
 Na       -0.8633078658       -1.1943525223       -7.4159059625
