232

 C        -4.2007091410        4.3453087265      -23.5040521771
 C        -4.8595398694        3.1047138943      -22.9680345076
 O        -4.8784282820        2.8154463696      -21.7962967129
 C        -5.3541164605        1.9944116629      -24.0351035970
 C        -6.8206720696        1.7938906651      -23.8856214425
 O        -7.3791309859        1.2735341705      -22.9677135941
 C        -7.8498686510        2.2738142163      -24.9066412352
 C        -9.3231584769        2.1022561220      -24.3297944882
 C        -9.4256027966        2.6054937818      -22.8749221047
 O        -8.6664265093        3.5015563970      -22.5011198761
 C       -10.5136511744        2.0744741862      -21.7874842370
 C       -10.5006503653        0.4675886121      -21.4138053147
 O       -10.2083414768       -0.3685669182      -22.2394335517
 C       -10.9701383175        0.2262329981      -19.9349386739
 C       -10.3357734230       -0.9853893343      -19.4286877631
 C        -8.8431771295       -0.9247747929      -19.5412728877
 O        -8.3573418228        0.2139749439      -19.7570990269
 C        -7.9077142229       -2.1176884393      -19.6496418800
 C        -6.4654081470       -1.4386453151      -19.3003436899
 O        -5.6819080185       -1.1765914041      -20.2010060582
 C        -6.0210424013       -1.1463445867      -17.7936185361
 C        -4.8051399355       -0.1543149019      -17.7310346062
 C        -5.0756670943        1.3750027943      -17.6597489000
 O        -5.4076676737        2.0378528782      -18.6208923347
 C        -4.9072983852        2.1242917935      -16.3338048482
 C        -5.6637483386        1.4134169239      -15.2083053651
 O        -6.2324396791        0.3851994871      -15.4930323919
 C        -5.8117147732        2.0469354592      -13.8135512790
 C        -6.0429253749        1.2171716929      -12.6432133863
 C        -4.6310783088        0.9300975248      -12.0214562977
 O        -3.7019557373        1.4486353248      -12.6084212610
 C        -4.3474933318        0.2405070638      -10.6486230763
 C        -2.7953629898       -0.2991504292      -10.6033744678
 O        -2.3229562265       -0.5285519102       -9.5254363755
 C        -2.1572150518       -0.8181612672      -11.9522948180
 C        -1.2630664430       -2.0347574268      -11.7232750444
 C        -1.8739794375       -3.1622337639      -10.8387976366
 O        -3.0112138851       -3.1898392342      -10.4667330670
 C        -0.9059100174       -4.2365170955      -10.3423285751
 C        -0.0031865205       -3.6957246198       -9.1703622680
 O        -0.1417800352       -2.5377009270       -8.7613178569
 C         0.7664832788       -4.6871173646       -8.2933059236
 C         1.8830298499       -3.9663238827       -7.4919669199
 C         2.5546534281       -5.0726406368       -6.5344122143
 O         1.9741102731       -6.0979191071       -6.3720316495
 C         3.8514251908       -4.5528121222       -5.7905648634
 C         3.7173728083       -2.9522436122       -5.5888197483
 O         4.1823401225       -2.1318236803       -6.3500522018
 C         2.9911616696       -2.5696991099       -4.2601327480
 C         2.4198303294       -1.1590981283       -4.3649393503
 C         1.5616113885       -0.8009956118       -5.6505869654
 O         0.5111677556       -1.3657560654       -5.8407019143
 C         1.8348968931        0.4383581889       -6.5604362135
 C         0.7027180283        1.4054756540       -6.3543501738
 O        -0.4473813791        1.0775261720       -6.5693687074
 C         0.9734454311        2.8079326329       -5.7739796553
 C        -0.1042985770        3.2860112078       -4.7946203604
 C        -0.3372114783        2.2277197105       -3.7985184106
 O         0.4524308255        1.2853400358       -3.6905781458
 C        -1.6945076494        2.0961910325       -2.9196780756
 C        -2.8510306815        1.4885994832       -3.9952975355
 O        -3.4488645361        2.2736974715       -4.7118155339
 C        -2.8860532368       -0.0773716437       -4.0341222710
 C        -3.7415045485       -0.4832331019       -5.2692708311
 C        -3.5565759641       -1.9047872535       -5.6819006474
 O        -3.0078314513       -2.1951838019       -6.7162837761
 C        -4.1578282542       -3.0570829898       -4.8087286976
 C        -3.4212506013       -3.1208027057       -3.2835837309
 O        -4.0964211947       -2.5853386608       -2.4548128088
 C        -2.0512568144       -3.7650183879       -3.0165503844
 C        -2.0278152447       -4.4582823911       -1.6624246755
 C        -0.6602550125       -4.8171672327       -1.1273000936
 O         0.3194902413       -4.4345649450       -1.6915403943
 C        -0.3814079484       -5.8729848026        0.0357751994
 C        -1.3921376935       -5.9857314516        1.1509653741
 O        -2.2654499456       -5.1139663932        1.1902749814
 C        -1.3677362036       -7.1192447428        2.1553344236
 C        -2.7466649918       -7.8337954767        2.2676189663
 C        -2.6127549956       -9.1390210008        2.9556095741
 O        -1.5105417582       -9.5469855406        3.3288170465
 C        -3.9333696860       -9.8700740555        3.1401082459
 C        -5.0926606831       -9.0054733740        3.9445704427
 O        -6.2457341093       -9.0224463058        3.5957389666
 C        -4.6098080272       -8.3062231780        5.1581500057
 C        -4.5547954418      -10.3480065206        1.7346118669
 C        -3.8620895412      -11.1712948084        4.0136728012
 C        -0.3386120457       -7.2641722542       -0.7595783802
 C         1.0474313779       -5.6702426166        0.6352617982
 C        -5.6155794813       -2.6577218974       -4.5809338242
 C        -4.1233251356       -4.3660462514       -5.6361961840
 C        -1.3311141032        1.1848769045       -1.6701591278
 C        -2.1209318932        3.6105751535       -2.3430635055
 C         3.2381011189        1.0034367207       -6.3095665684
 C         1.8827930547       -0.1524698968       -8.0093015098
 C         4.1385693777       -5.3113820690       -4.4533862953
 C         5.2475136244       -4.7266747044       -6.6337738028
 C        -1.8767024648       -5.4386906339       -9.8185004148
 C         0.0147663599       -4.8628119383      -11.4094043956
 C        -4.5653765545        1.3852350164       -9.6154313940
 C        -5.3258695641       -0.9514721565      -10.2904990344
 C        -3.4223103718        2.0993032227      -15.8039008340
 C        -5.4043853975        3.6701562088      -16.5198432215
 C        -8.4007471990       -3.1282355297      -18.6005635980
 C        -7.9209640687       -2.8020233994      -21.0127259743
 C       -10.3666520893        2.9925397783      -20.5619188280
 C       -11.9057825604        2.3034215916      -22.5026331942
 C        -5.0246659307        2.2424747363      -25.5767631862
 C        -4.7787082257        0.5644061397      -23.5557126443
 H        -3.0690585665        4.3278929873      -23.2305355244
 H        -4.4144608980        5.3320976018      -23.0394996821
 H        -4.2982471904        4.3828376302      -24.6089993277
 H        -7.8425773744        1.9655740902      -26.0236133063
 H        -7.7069037809        3.3753227569      -25.1056458921
 H        -9.6060341773        1.0394179471      -24.3851334664
 H       -10.0165595955        2.7325828467      -24.9532015609
 H       -12.0596200882        0.1329593005      -19.9906113859
 H       -10.6719791595        1.0793275526      -19.3761484698
 H       -10.8597001756       -1.8201613415      -19.8791061546
 H       -10.5981964458       -1.0971670654      -18.3262960293
 H        -5.8291617071       -2.0763387664      -17.2991630290
 H        -6.8357138014       -0.8098724399      -17.2235209140
 H        -4.2248872992       -0.2547642094      -18.6471873643
 H        -4.2038645208       -0.4952080765      -16.8885199647
 H        -6.6688569882        2.6891878422      -13.9409213280
 H        -4.9442130727        2.7133119804      -13.6529778957
 H        -6.6611740000        0.3627411666      -12.8877747260
 H        -6.5352573968        1.7925999433      -11.8224333003
 H        -1.6131216271        0.0657998576      -12.2584457404
 H        -2.9421641601       -1.0460869171      -12.6910641437
 H        -0.3469023041       -1.7201668774      -11.1942228932
 H        -0.9362725873       -2.3590053306      -12.6989806967
 H         1.2793736661       -5.4458782833       -8.9942200142
 H         0.1643132388       -5.2611812186       -7.6028068367
 H         1.6233367519       -3.0812714519       -6.9322014276
 H         2.6271694906       -3.6391769410       -8.2133630006
 H         3.9021317020       -2.5472407728       -3.6093609175
 H         2.2399764837       -3.3123688800       -3.9859024164
 H         3.2966464473       -0.4768174790       -4.2918624181
 H         1.8773886300       -0.8586336927       -3.4966518209
 H         1.0466117339        3.4508692601       -6.6854615949
 H         1.8814305748        2.8205474875       -5.3378097108
 H        -0.9857102473        3.6153534783       -5.2771110861
 H         0.1158129512        4.2890003358       -4.3356190209
 H        -3.2899547616       -0.4949144096       -3.1822576423
 H        -1.8203778891       -0.4606493626       -4.1637568111
 H        -3.5510654151        0.2026357992       -6.0892684905
 H        -4.7989414799       -0.2621103865       -4.9602607481
 H        -1.2048131594       -3.2289656362       -3.2914765453
 H        -2.0420237521       -4.6004625055       -3.7754614776
 H        -2.5074011158       -5.4675157716       -1.7072663038
 H        -2.5457251081       -3.8589577861       -0.9965701854
 H        -1.2319996295       -6.5317731358        3.0370086995
 H        -0.6265277437       -7.8347023023        1.9451153893
 H        -3.2773025097       -7.7076637604        1.3169021062
 H        -3.3526422718       -7.2168265040        3.0100027395
 H        -3.6345146919       -7.8785455812        4.9989647658
 H        -4.5301503357       -9.0311173074        6.0153803237
 H        -5.2561875639       -7.4983717142        5.5407254953
 H        -5.6267789964      -10.4591996374        1.6683892936
 H        -3.9515813611      -11.2297620704        1.5032122617
 H        -4.3304576622       -9.5778980174        0.9360463008
 H        -3.2926100073      -11.9329456212        3.4691186083
 H        -4.8691959015      -11.5437159928        4.1957048726
 H        -3.3303842007      -11.0128791417        4.9838056487
 H        -1.3278048805       -7.6144409756       -1.0785113216
 H         0.2765321510       -8.1683170594       -0.4031238610
 H         0.2288490819       -7.1068418368       -1.6252787907
 H         1.6377436467       -5.4045726551       -0.2289594484
 H         1.4374917014       -6.5637631398        1.0677170597
 H         1.0658556994       -4.8767306626        1.3066249052
 H        -5.8248119570       -1.8164694268       -3.8922696932
 H        -6.0840288632       -3.5471640877       -4.0519817448
 H        -6.1331148650       -2.3967083124       -5.4628042723
 H        -4.9927263298       -5.0010569115       -5.2875883045
 H        -3.2268136788       -4.9518670014       -5.5414993548
 H        -4.3309771055       -4.2091051998       -6.7437617175
 H        -1.8979527614        1.4933385637       -0.8212294441
 H        -0.3258560544        1.5248724531       -1.4146723937
 H        -1.4237537591        0.1185050666       -1.8778972542
 H        -2.6371647072        4.1005657419       -3.1942133356
 H        -1.2663798715        4.1195838486       -1.8843397819
 H        -2.7833369750        3.3630830594       -1.5699187669
 H         3.4071405352        2.0655614076       -6.6925389298
 H         4.1324470450        0.5195700289       -6.6485319131
 H         3.4031552744        1.0870120301       -5.2099837137
 H         2.4085707602       -1.0956665761       -7.8388560083
 H         2.4370011872        0.4280147667       -8.7109012610
 H         0.8821056696       -0.3202514560       -8.3811417032
 H         4.1905714599       -6.4119915105       -4.5211212862
 H         3.5695581548       -4.9847885799       -3.6141459278
 H         5.1207175588       -4.9987556959       -4.0561308276
 H         5.3794204541       -4.0411431332       -7.5073979776
 H         5.3859034620       -5.7000833055       -7.0861441265
 H         6.0510924172       -4.5971323231       -5.8745978090
 H        -1.1749553557       -6.2251900246       -9.4921768103
 H        -2.3012393903       -5.8760952851      -10.6913025109
 H        -2.6230634244       -5.2010210501       -9.1065037893
 H         0.6178345703       -5.6975902334      -11.0524861617
 H         0.8701404492       -4.3603545251      -11.8839932515
 H        -0.5630438838       -5.2727264075      -12.2159893947
 H        -4.5624464629        2.3790123643      -10.1767418331
 H        -3.6582532653        1.4066383349       -9.0324020772
 H        -5.4796848169        1.3141091970       -9.0255219357
 H        -5.0558260974       -1.2844259046       -9.3238850831
 H        -5.2282130457       -1.5901436944      -11.1577374140
 H        -6.3220566360       -0.5159996258      -10.3434713549
 H        -3.4047247058        2.6227196800      -14.8817012512
 H        -2.8380561542        2.7236584696      -16.4797313857
 H        -3.0289172619        1.0228690567      -15.7049908833
 H        -4.9551762410        4.1432322357      -15.6239686476
 H        -6.4392882824        3.7222653523      -16.6190121954
 H        -4.9322430284        4.0188886921      -17.3517365845
 H        -7.9129890584       -4.0594027266      -18.6358710409
 H        -9.4392621151       -3.2744769433      -18.7284066072
 H        -8.2078487710       -2.6037317145      -17.6241572177
 H        -7.2044212912       -3.5987089977      -21.1776630796
 H        -7.6761652073       -2.0503037689      -21.7801915265
 H        -8.9733851634       -3.1010338266      -21.2936264938
 H        -9.4478745825        2.8010019541      -20.0989821285
 H       -11.0520731577        2.8577018445      -19.7469730662
 H       -10.4007442506        4.0144296265      -21.0322393418
 H       -11.8729994565        3.1642006737      -23.0774046824
 H       -12.7198755092        2.5139180279      -21.8576087733
 H       -12.3622305090        1.4780046239      -23.0590895046
 H        -5.3625844077        1.3601013441      -26.0922278418
 H        -3.9748288001        2.3200860435      -25.6440034226
 H        -5.5106867741        3.2177658568      -25.9136227500
 H        -5.1490147651        0.2646285754      -22.5252388134
 H        -3.6884904247        0.6469461897      -23.4089381738
 H        -5.0915513143       -0.1753099338      -24.2341132734
 Na       -6.3466282725        1.2964229290      -20.7785311137
 Na       -1.2406304656       -0.8967449336       -7.4508244760
