232

 C        -4.2187199901        4.2813636979      -23.5624725537
 C        -4.8254693078        2.9569533872      -23.1224777158
 O        -4.9566642919        2.7306400552      -21.9137792027
 C        -5.3310046794        1.7007069853      -24.1382370281
 C        -6.8500309994        1.3007181721      -23.7264153856
 O        -6.9659487253        0.5667146049      -22.7499510021
 C        -8.0322790827        1.8917604824      -24.4611779153
 C        -9.4268785264        1.8888365609      -23.8613006701
 C        -9.6392737018        2.7674733042      -22.5356534699
 O        -8.8455514024        3.5509077328      -22.1147388140
 C       -10.9630141491        2.2771596038      -21.7306846802
 C       -10.5058008724        0.8771156975      -21.1564656808
 O        -9.7700441789        0.0630515150      -21.6908221040
 C       -11.1409715355        0.4319205933      -19.8240970640
 C       -10.3746445417       -0.9382751289      -19.3673443650
 C        -8.8616926936       -0.6410479604      -19.4160752401
 O        -8.4109874039        0.4483971602      -19.1524179399
 C        -7.9560244638       -1.9006706226      -19.6961833148
 C        -6.3865015414       -1.5637316326      -19.5689795476
 O        -5.7140286796       -1.1849627150      -20.5165836643
 C        -5.7288130970       -1.3494866893      -18.1158839072
 C        -4.6240694706       -0.2915417772      -18.0274036565
 C        -5.1439244141        1.1524209985      -17.6861494977
 O        -5.8371900853        1.8354630585      -18.4063559863
 C        -4.8566522789        1.8144706811      -16.2512435402
 C        -5.7252726852        1.0686665799      -15.2768416531
 O        -6.0882743146       -0.1133147433      -15.3421837633
 C        -6.3498854727        1.9725218057      -14.1967062447
 C        -6.3652928538        1.3626085868      -12.7640562407
 C        -4.9171596317        1.1958423512      -12.1911652157
 O        -4.0000444387        1.6978249324      -12.8112989725
 C        -4.5764880782        0.5544453772      -10.7968880313
 C        -3.0573331431        0.0101414154      -10.7555653570
 O        -2.2878917043        0.2903638901       -9.8498027705
 C        -2.7038998003       -0.9578892912      -11.9553766067
 C        -1.5848875280       -1.9321324234      -11.5454753201
 C        -1.9667221958       -3.0073408546      -10.5804843633
 O        -2.9997120514       -2.9904049625       -9.9780015551
 C        -0.9321970447       -4.1483708652      -10.3287822673
 C        -0.0667673526       -3.7387856894       -9.0990920917
 O        -0.2790006967       -2.6546890371       -8.6290524214
 C         0.9570601799       -4.6983533984       -8.4886972501
 C         1.8323933683       -3.9657502130       -7.4848080506
 C         2.3062694190       -4.9268093534       -6.4178261992
 O         1.6439264843       -5.9218828853       -6.1563051375
 C         3.6529937821       -4.5644526262       -5.6123799648
 C         3.4596119746       -2.9609757141       -5.4052839991
 O         3.9947296383       -2.1270545027       -6.1523529655
 C         2.5825331463       -2.3984072273       -4.1190106356
 C         2.3798962083       -0.8776246274       -4.3885181899
 C         1.5721892830       -0.6713027084       -5.6835694208
 O         0.5454890275       -1.2754816763       -5.9026765142
 C         2.0711900324        0.4553649956       -6.7343304867
 C         0.9796370957        1.5893374756       -6.5369353206
 O        -0.1574689742        1.5018961834       -7.0609466784
 C         1.3564479725        2.7648781593       -5.6843497702
 C         0.2255862868        3.1907073357       -4.6559222003
 C        -0.3148178866        2.0214123508       -3.7948964721
 O         0.1259820295        0.8807623537       -3.9309971108
 C        -1.5246334381        2.3009395056       -2.8796881373
 C        -2.7651874351        1.5945977527       -3.7362948267
 O        -3.6084483931        2.2714825395       -4.2388982266
 C        -2.6150326197        0.0211322294       -3.9718805255
 C        -3.8820412400       -0.5330713791       -4.7224234408
 C        -3.4071991499       -1.8702090164       -5.2512851931
 O        -2.6141469985       -2.0131047942       -6.1689598874
 C        -3.9557025234       -3.2352729794       -4.6111570314
 C        -3.3163279266       -3.1769683879       -3.2427838690
 O        -3.8573564749       -2.4236046421       -2.4449445504
 C        -2.1325872379       -3.9834235620       -2.7330299948
 C        -2.0575166009       -4.2683567650       -1.2338641987
 C        -0.6167229729       -4.6060255490       -1.0826560073
 O         0.3174421176       -3.8526228001       -1.4124816543
 C        -0.3061217991       -6.1116517690       -0.4532602911
 C        -1.0003323801       -6.2308465362        0.8809049020
 O        -1.4432597056       -5.2830402816        1.4722486636
 C        -1.0641303737       -7.6325459446        1.5806214919
 C        -2.5553679150       -8.1340815116        1.7593629512
 C        -2.5562082661       -9.2624995102        2.8953414215
 O        -1.5049835245       -9.5204073167        3.4639536597
 C        -3.8402094643      -10.1469102603        3.0955401007
 C        -4.9841802895       -9.2066072609        3.4883363935
 O        -5.9851068462       -9.1985971247        2.7865144818
 C        -4.9155966774       -8.4275904157        4.7966701556
 C        -4.1364545261      -10.8563964631        1.8017073862
 C        -3.6686720774      -11.1572987420        4.2613469411
 C        -0.6545394595       -7.0937811037       -1.5605360003
 C         1.1895267641       -6.1803795078       -0.1959956538
 C        -5.5344632634       -3.2189244417       -4.5691875069
 C        -3.5116556009       -4.3812992685       -5.5688151117
 C        -1.2411035847        1.5288035922       -1.5125536325
 C        -1.8448652626        3.7956308706       -2.6241725988
 C         3.3761520760        1.0825533040       -6.6243711448
 C         2.0937349436       -0.0582187865       -8.2247385303
 C         3.8755364598       -5.1927842202       -4.1729218248
 C         4.9183460860       -4.6287648778       -6.3878697894
 C        -1.8814051042       -5.4162710467       -9.8996113648
 C         0.0633344102       -4.5013710196      -11.4412068868
 C        -4.8142922790        1.6506189552       -9.7522811429
 C        -5.4554218695       -0.7656189018      -10.5869320426
 C        -3.4179604171        1.6707508343      -15.6745195005
 C        -5.1257567352        3.3494171877      -16.3619724144
 C        -8.3619341589       -3.0165403046      -18.7946664669
 C        -8.0972773460       -2.2816296101      -21.2004303396
 C       -11.3691051537        3.3158399190      -20.6138768497
 C       -12.2943535717        1.9397164052      -22.5691264866
 C        -5.2252548863        2.1559289194      -25.6514844526
 C        -4.4069661270        0.5209671016      -23.8095078758
 H        -4.8529355921        5.1241050181      -23.2345009461
 H        -4.0190292587        4.5065796295      -24.6575112828
 H        -3.2227936491        4.3354266872      -23.0028063959
 H        -8.0864459566        1.4226952168      -25.5077780626
 H        -7.7125089009        2.9608984810      -24.6942593884
 H        -9.7039909317        0.7945893149      -23.7529959522
 H       -10.0666511854        2.3337976556      -24.6207099047
 H       -12.1962593728        0.2302501550      -19.9105294584
 H       -10.8376944683        1.2071893471      -19.1688462848
 H       -10.6125088187       -1.6807889036      -20.1378696718
 H       -10.7711907488       -1.1572262031      -18.3688288443
 H        -5.3097347193       -2.2768486043      -17.8041760901
 H        -6.4830527524       -1.1746931284      -17.4004355735
 H        -3.9663882578       -0.3598737038      -18.8566680993
 H        -3.9955326496       -0.6292714206      -17.1368247874
 H        -7.4326310237        2.2034789543      -14.4048054365
 H        -5.8705270883        2.9059035358      -14.1054004106
 H        -6.7392893788        0.3185640564      -12.7687647807
 H        -6.9681674580        2.0094414193      -12.1353015005
 H        -2.2981769265       -0.3152096030      -12.7097015383
 H        -3.6367087924       -1.3876837235      -12.2552553601
 H        -0.6596203880       -1.3516016665      -11.2410948784
 H        -1.2228555970       -2.4162179370      -12.4475010458
 H         1.4501869998       -5.1898377751       -9.2274253880
 H         0.4097614739       -5.5237862106       -8.0039992436
 H         1.2494209617       -3.0926967853       -7.1258236785
 H         2.6617927333       -3.4702360941       -7.9331148171
 H         3.1322201563       -2.4919037647       -3.1728644559
 H         1.6502712989       -2.9860804881       -4.0618333506
 H         3.3090250647       -0.3566781079       -4.2494790100
 H         1.6954518475       -0.5684043746       -3.5600632086
 H         1.5509048494        3.5309714866       -6.3341158816
 H         2.3431629783        2.5610042070       -5.1923031058
 H        -0.5688594244        3.7624002044       -5.2031378112
 H         0.6101577157        4.0033694050       -4.0143570633
 H        -2.4136364977       -0.5808113613       -3.0860690218
 H        -1.7715540642       -0.2234074366       -4.5800653282
 H        -4.2547958857        0.1377667616       -5.5217913623
 H        -4.6732385492       -0.7132386774       -3.9768151662
 H        -1.2055792238       -3.7368004019       -3.2142670985
 H        -2.2795881338       -5.0110368311       -3.0854438503
 H        -2.6047460569       -5.1455050776       -1.0233485155
 H        -2.2955946999       -3.4788091745       -0.5007721249
 H        -0.7634233474       -7.6293128853        2.6132214864
 H        -0.4441783122       -8.4144902877        1.2030069468
 H        -3.0958597901       -8.3412455420        0.7770422725
 H        -3.0122303681       -7.2991152565        2.2821410359
 H        -4.0646493109       -8.7534507827        5.4596680872
 H        -5.8122180323       -8.4006896706        5.3760718192
 H        -4.7144649787       -7.3696665452        4.5781758094
 H        -4.9259573677      -11.6327735103        2.0417252892
 H        -3.2299791085      -11.4040757362        1.5325323689
 H        -4.4941686976      -10.3158720096        0.9151577079
 H        -3.6084457231      -10.7090192457        5.2210252401
 H        -2.7758923346      -11.7631803702        4.1195938169
 H        -4.4648876359      -11.9032587354        4.3090759962
 H        -0.7851561302       -8.1592507614       -1.3195859596
 H         0.1379396184       -7.2512993103       -2.1772414330
 H        -1.4921610588       -6.7781696268       -2.2260602732
 H         1.7047964299       -5.9359799199       -1.0852791013
 H         1.4807725282       -7.0992364590        0.1921067058
 H         1.3847816050       -5.4236760607        0.5504862558
 H        -5.9080219471       -2.2689288086       -4.1495701703
 H        -5.8801264644       -3.9900610975       -3.9100946400
 H        -6.1182013330       -3.4968127576       -5.4786888099
 H        -4.0740578306       -5.2903057403       -5.3346773846
 H        -2.3981027571       -4.6104780671       -5.4401522720
 H        -3.7011210608       -4.1775168944       -6.5994825610
 H        -2.1336594609        0.8865791828       -1.3317685129
 H        -1.1570676335        2.2824523991       -0.7356928271
 H        -0.2861550233        1.0297600657       -1.5831719614
 H        -2.2524497532        4.1132440749       -3.5314520076
 H        -0.9481476738        4.3225453758       -2.2767070875
 H        -2.8062358443        3.8714654807       -2.0842127166
 H         3.4700431765        2.0945816215       -7.0001919517
 H         4.2550677910        0.5617186242       -7.0331476020
 H         3.8090483167        1.1518330425       -5.6071632854
 H         1.6061859929       -0.9846365077       -8.4041951537
 H         3.1426941349       -0.3331401968       -8.4704073836
 H         1.6829066213        0.6212849667       -8.9719435702
 H         3.8317659478       -6.2895772376       -4.2224905986
 H         3.1870084640       -4.9534620114       -3.3577214200
 H         4.8913177319       -4.9580595998       -3.7996246467
 H         4.7323834642       -3.9748724237       -7.2459071145
 H         5.1832350124       -5.6837977304       -6.7311267667
 H         5.8308609337       -4.2630652476       -5.9226621129
 H        -1.2871261414       -6.2342174555       -9.6337216978
 H        -2.5411044639       -5.6588791464      -10.7711751699
 H        -2.4713792542       -5.1758826884       -9.0191571909
 H         0.3999008891       -5.5701910977      -11.3519378749
 H         0.9128858083       -3.8010113193      -11.4704523675
 H        -0.2186213755       -4.4390652321      -12.5098860553
 H        -3.8654741369        2.1635384115       -9.7291149296
 H        -5.0174531151        1.1819074314       -8.7671353428
 H        -5.6833196123        2.2561935560      -10.0616806017
 H        -4.9481017031       -1.1292593082       -9.6983155986
 H        -5.4905226732       -1.3460708819      -11.5147877204
 H        -6.4212244131       -0.4051704422      -10.3409470835
 H        -3.3577278212        2.1406184815      -14.6411300471
 H        -2.6866434652        2.1804742525      -16.3360396360
 H        -3.1418455201        0.6448024580      -15.6335508056
 H        -4.7004237795        3.7614093856      -15.5361307819
 H        -6.1676404546        3.5451701855      -16.2870316627
 H        -4.7974266315        3.7511400903      -17.3182964342
 H        -7.9259193004       -3.8892702378      -19.3233708808
 H        -9.4663012041       -3.2390317143      -18.7885611700
 H        -8.1306536968       -2.9529030232      -17.8067282255
 H        -7.6725353404       -3.3005388487      -21.3540062950
 H        -7.6172201807       -1.5647134650      -21.8245973395
 H        -9.0942233328       -2.4198292846      -21.5805431613
 H       -10.4521150098        3.6037116265      -20.0097722305
 H       -12.1765552248        2.9492038209      -19.9966566669
 H       -11.8055786965        4.1476713587      -21.0662003777
 H       -12.7296547009        2.7609200949      -23.1311609061
 H       -13.1053499318        1.6256380921      -21.9302818958
 H       -12.1463616191        1.2985630480      -23.3868714485
 H        -5.4454579541        1.2935669055      -26.2669753185
 H        -4.2268947532        2.6218056001      -25.8425540675
 H        -5.9178334131        2.9540008366      -25.8004956685
 H        -4.3191202961        0.4473321101      -22.7507119957
 H        -3.4957131579        0.8957528778      -24.3036540082
 H        -4.6350349228       -0.5194515352      -24.1482020296
 Na       -6.0468283904        1.1416276233      -20.6803964957
 Na       -1.0958671499       -0.6634832792       -7.5618357395
