232

 C       -20.3657772566       -4.8853120723       -5.5585324007
 C       -20.3949942721       -5.7219854826       -4.3108913973
 O       -19.6627317656       -6.6317665663       -4.1083002643
 C       -21.5061923560       -5.4577306724       -3.2372454749
 C       -20.5772139618       -5.1289585503       -1.9989745141
 O       -20.1113523450       -6.0070296450       -1.2559320515
 C       -20.3112650758       -3.5792654765       -1.7690592664
 C       -19.0006900780       -3.3380902449       -1.0474535057
 C       -17.7366150935       -3.7214225147       -1.9561188338
 O       -17.8563640204       -4.2882196879       -3.0344807248
 C       -16.1983280107       -3.4448087400       -1.4369680575
 C       -15.8812490165       -4.9554538544       -0.8611875408
 O       -16.7413799784       -5.4708769549       -0.1507735099
 C       -14.4688170547       -5.6518597131       -1.0972767427
 C       -14.5157893418       -7.1586901100       -0.8512179228
 C       -14.9839671033       -7.9336830713       -2.1191059569
 O       -15.9207582975       -7.5751471737       -2.7808007372
 C       -14.1945877849       -9.3026218696       -2.5020802468
 C       -12.8695150031       -8.8033550659       -3.1507147786
 O       -12.9216758266       -7.7379851197       -3.7731495446
 C       -11.6116938701       -9.6288406719       -3.0365163256
 C       -10.4043728785       -9.1891550705       -3.9070116371
 C        -9.1176572933       -9.8220957629       -3.2914163890
 O        -9.2067344777      -10.4271513109       -2.2548747473
 C        -7.8468279557       -9.8150464889       -4.2222132929
 C        -7.6549946773       -8.4620716837       -4.9704500514
 O        -8.2017165850       -7.4336977574       -4.6177969924
 C        -6.7241794701       -8.3691887425       -6.3104208839
 C        -6.2374541802       -6.9724412058       -6.6697680387
 C        -7.3079516316       -6.2101852437       -7.5914535622
 O        -8.2278759326       -6.8244101796       -8.0792225085
 C        -7.1580683298       -4.6083780863       -7.7486317573
 C        -5.8296539394       -4.4010530733       -8.7273699216
 O        -4.8228782877       -3.8440444838       -8.3069893286
 C        -6.0753047759       -4.8440523907      -10.1601811255
 C        -5.5387093608       -3.8139706381      -11.0523654638
 C        -5.7988217989       -4.1810027328      -12.5203448823
 O        -6.5724516675       -5.0154682235      -12.9040378667
 C        -4.9654146408       -3.4778014874      -13.6510223203
 C        -4.0298705299       -2.2889190669      -13.1635537701
 O        -4.5093319362       -1.4495559458      -12.4552250140
 C        -2.5896840115       -2.1567392966      -13.6777031438
 C        -1.4929247884       -2.3919321937      -12.6172723878
 C        -0.0648713248       -1.8801217631      -13.0570336684
 O         0.1093071704       -1.2368507119      -14.0381766049
 C         1.0394565483       -2.5424110015      -12.1905584358
 C         2.1852974464       -1.3456075715      -12.1006551908
 O         3.2245549497       -1.4391189196      -12.7470339324
 C         1.7904468537       -0.0484273790      -11.2798616325
 C         3.0365032811        0.7604251284      -11.0564940954
 C         2.8654063866        2.1213382157      -10.3801451595
 O         1.7641980741        2.6260450214      -10.3102945392
 C         4.1994632427        3.0454354001       -9.9866324827
 C         4.5250933266        3.7378893190      -11.3581056091
 O         5.5620466402        3.3198035016      -11.9677615700
 C         3.6409493387        4.8227905111      -11.8557577187
 C         4.2966684485        6.2912094757      -11.5604226218
 C         5.4807622736        6.5428511447      -12.4322963420
 O         5.6321506943        6.1139397291      -13.5807885785
 C         6.7129566684        7.4925743013      -12.0030022297
 C         7.5194585678        7.6496598107      -13.3833683799
 O         7.3120245530        8.6837001982      -13.9985792488
 C         8.6009421640        6.6040118524      -13.7349280473
 C         9.2578383068        6.7072290594      -15.1218998142
 C         8.4060315368        6.0994466417      -16.1921802601
 O         7.6365449072        5.1899764658      -15.9175124838
 C         8.6904764638        6.5537912944      -17.7265070091
 C         9.0383955220        5.2510548379      -18.5538821063
 O         9.5638493687        4.3450662280      -17.9118182603
 C         8.6636989921        5.2054534696      -20.0604519331
 C         9.1955341373        3.9393491952      -20.8210673945
 C         8.0853705807        2.8599762940      -21.1316706728
 O         6.9516938686        3.2204843437      -21.3707788013
 C         8.4259438566        1.2528630012      -20.9724049421
 C         8.8451608717        1.1161237455      -19.4826155994
 O        10.0201905651        1.1595832638      -19.1466018346
 C         7.6911562789        1.1223368121      -18.3562332381
 C         8.3401235847        0.8048972876      -17.0263239998
 C         7.4516961502        1.2688466370      -15.7447447676
 O         7.8310559889        2.1888518303      -15.0938667824
 C         6.2096551075        0.4630390833      -15.4242815661
 C         5.0627359057        1.2823846875      -16.1043613307
 O         4.9499008858        2.4697368671      -15.9934037264
 C         4.0742122654        0.4758887646      -16.9693999358
 C         6.4260758308       -0.9302971708      -15.9989040973
 C         5.8415095307        0.3375129225      -13.9778649580
 C         7.1874630216        0.4463105970      -21.2122046827
 C         9.7424867688        0.9309758427      -21.8634390771
 C         7.3644437248        7.1789530263      -18.3750606793
 C         9.9464204185        7.5203267322      -17.8866364952
 C         5.9772295099        8.8718101219      -11.5714540121
 C         7.5223109063        6.8680880938      -10.8642438304
 C         3.7454447293        3.9545517794       -8.8602131025
 C         5.4421193371        2.1723420929       -9.6268236653
 C         0.6761402492       -2.9854385212      -10.8260027485
 C         1.4717000535       -3.7344210453      -13.0784120580
 C        -3.9950010066       -4.5844364400      -14.2644009859
 C        -6.0392115852       -2.9284412317      -14.7075980674
 C        -8.4153932255       -4.2323978562       -8.5230116449
 C        -6.9885701770       -3.7787665654       -6.4144997226
 C        -6.4676570843      -10.0250269972       -3.2541787267
 C        -7.9024678742      -10.9636402883       -5.0849891413
 C       -14.0131769090      -10.1943193225       -1.2091368838
 C       -15.0007781066       -9.9684484459       -3.6034810823
 C       -15.4285430213       -3.1794635884       -2.7600059315
 C       -16.0396778404       -2.4857065088       -0.2756439637
 C       -22.5564780438       -4.4059439671       -3.6115616984
 C       -22.2963225503       -6.8656456895       -3.0364921492
 H       -19.9917188158       -3.8863033649       -5.3035242795
 H       -21.2799830487       -5.0524891166       -6.1104106836
 H       -19.6965693500       -5.4162896354       -6.2478933014
 H       -21.2073287900       -3.1366428498       -1.3150854368
 H       -20.2943217810       -3.1369019785       -2.7730928490
 H       -18.9316379186       -3.8677521844       -0.0827097423
 H       -18.8671889316       -2.2540537944       -0.7492484504
 H       -13.7407488526       -5.1336438753       -0.4494489068
 H       -14.1307360547       -5.5325457616       -2.1032965116
 H       -15.2186251762       -7.3478147874       -0.1108358515
 H       -13.4228288129       -7.4034238102       -0.6490084030
 H       -11.9080995781      -10.6567793545       -3.1019765804
 H       -11.3405639321       -9.4909201100       -1.9444354643
 H       -10.2987427748       -8.0422150357       -4.0173868339
 H       -10.4721419172       -9.6251178390       -4.9461428092
 H        -7.3176528863       -8.8440057171       -7.1239867846
 H        -5.8031501063       -9.0110121172       -6.1882460339
 H        -5.3907446683       -7.0670175758       -7.2802466750
 H        -5.9621937832       -6.2794355034       -5.8558977693
 H        -7.1676124004       -5.1018151539      -10.3529874217
 H        -5.5759628092       -5.7499993509      -10.2302960881
 H        -4.4198049132       -3.7249695852      -10.9528905971
 H        -5.8538231845       -2.8086050690      -10.8792927753
 H        -2.3939562522       -1.1400754109      -14.0699726227
 H        -2.2928860994       -2.8966511177      -14.4417662759
 H        -1.1656557532       -3.3543996998      -12.2616320735
 H        -1.6523815389       -1.7359836751      -11.6770586853
 H         1.1971333087       -0.1998702023      -10.3719765760
 H         1.0773029718        0.4859576412      -11.9453891178
 H         3.4927045240        0.7633797274      -12.1108490797
 H         3.6963875615        0.2539974225      -10.3918662270
 H         2.6867001645        4.8011759203      -11.3460892907
 H         3.6008486103        4.8273964784      -12.9944149319
 H         4.4324820690        6.3571257241      -10.4444749244
 H         3.4674543606        7.0925042016      -11.7319453759
 H         8.2259682680        5.5576505424      -13.5292036165
 H         9.3905549696        6.7633650265      -12.9853613831
 H        10.0872147384        6.0698743291      -15.1114391658
 H         9.5964097308        7.7452740771      -15.5168082340
 H         9.0555908469        6.1092213613      -20.4745151223
 H         7.5758097117        5.2684106972      -20.0916974462
 H         9.9127208222        3.4370659525      -20.2752487578
 H         9.6522383081        4.3113986983      -21.7608657984
 H         7.0636406396        0.2119748265      -18.5363243558
 H         7.2039254004        2.0779318229      -18.4346176919
 H         9.2805377859        1.4294448234      -17.0137217976
 H         8.6643611555       -0.2997267374      -16.9373997812
 H         4.7409073627        0.4528723619      -17.8781371385
 H         3.3161871173        1.0640723274      -17.3630336537
 H         3.6515056468       -0.4973780279      -16.8532489680
 H         5.6149138820       -1.4588310871      -15.5593894235
 H         7.3511514562       -1.3455417123      -15.5703819070
 H         6.5618456536       -1.1372199785      -17.0513583737
 H         5.0646940725       -0.4663314436      -13.8456626000
 H         5.3730026973        1.2731193094      -13.4866812040
 H         6.7110338688       -0.0193065753      -13.4101082248
 H         7.4042576966       -0.6490823468      -21.0832726301
 H         6.8425060879        0.4945316901      -22.2996295283
 H         6.3202950260        0.7877259610      -20.5360631073
 H         9.9531228986       -0.0899393850      -21.7730752139
 H        10.5368896759        1.5708562603      -21.5629701597
 H         9.4883759684        1.1345764676      -22.9042988108
 H         7.0861085352        7.9910414299      -17.7230716816
 H         6.4862752591        6.5407612581      -18.5265045535
 H         7.5995157825        7.4979096176      -19.4207518952
 H        10.8706546217        7.0037817912      -17.5394628487
 H         9.6712326048        8.4410756070      -17.4396344278
 H        10.0427588218        7.8436612544      -18.8911508690
 H         6.7866689459        9.5374007098      -11.3518505329
 H         5.4726231945        8.8826316579      -10.5842916342
 H         5.2250612705        9.2766230466      -12.3202735311
 H         7.3366190389        7.3994036580       -9.9374036937
 H         8.6509377552        6.8223355110      -11.0919478007
 H         7.1892460258        5.8360166096      -10.7278061739
 H         4.6503419906        3.7891611336       -8.1684682763
 H         2.8892865010        3.6169513841       -8.2829868866
 H         3.6800449340        4.9663795883       -9.1561021716
 H         6.3257907021        2.8527432046       -9.8547324906
 H         5.6096822886        1.2594427164      -10.2572619935
 H         5.5071583942        1.8579576990       -8.5774834462
 H         0.2324970837       -2.2351729795      -10.1868278799
 H         1.6233353521       -3.3957414992      -10.3809404701
 H        -0.1083732193       -3.7495521321      -10.6579163814
 H         0.7934434205       -4.5854924325      -12.9796218606
 H         2.4529229544       -4.0222277550      -12.7058144339
 H         1.7053256728       -3.5460299527      -14.0795005431
 H        -3.4654462951       -4.3618065224      -15.1934015892
 H        -4.6058365604       -5.4701623298      -14.6241278765
 H        -3.3108738895       -4.8846905507      -13.4624758274
 H        -5.5667790768       -2.4504673497      -15.6026990869
 H        -6.6146103874       -2.1597396008      -14.1837796206
 H        -6.7090885909       -3.8086859001      -14.8928990163
 H        -9.1459517390       -3.7026624724       -7.8569077182
 H        -8.9642346343       -5.0554146967       -8.9819145546
 H        -8.2388463162       -3.5082415116       -9.2486007053
 H        -7.9859294899       -3.4223496716       -6.0508009709
 H        -6.2970006732       -2.9808692743       -6.4880844324
 H        -6.6647338878       -4.5075835036       -5.6792159985
 H        -6.4080497837      -10.9843129066       -2.7020582118
 H        -6.3949811462       -9.2272743265       -2.5418196173
 H        -5.5684590599       -9.9816995078       -3.8698059405
 H        -8.0194291421      -11.9217358984       -4.4856920723
 H        -7.0411547713      -11.0712706258       -5.6949326469
 H        -8.8213833572      -11.0742200980       -5.6365518826
 H       -13.0393632216       -9.9618574644       -0.7814552841
 H       -14.1562219284      -11.1965826606       -1.4064194601
 H       -14.7321502128       -9.8935140705       -0.4147231688
 H       -15.1522001852       -9.2937341771       -4.3927372705
 H       -15.9670951292      -10.3719617823       -3.1895162357
 H       -14.4496579452      -10.8150610949       -4.0692808145
 H       -15.6418709514       -3.9995684928       -3.4351603459
 H       -14.3972886853       -3.3210339873       -2.4710338060
 H       -15.6568071463       -2.1740438980       -3.1458079408
 H       -16.3642969129       -3.0509564503        0.6858438091
 H       -16.7003860695       -1.6391127045       -0.3934227224
 H       -14.9783543729       -2.1823411813       -0.0392972820
 H       -22.0554990320       -3.6207036760       -4.0873575733
 H       -23.0898643769       -4.0437927555       -2.7318608584
 H       -23.3839740045       -5.0353571977       -4.1513845988
 H       -22.6706615658       -7.0004860941       -2.0192956905
 H       -21.6523104584       -7.7144609023       -3.3039221187
 H       -23.1450883812       -6.8564273686       -3.6989125210
 Na      -18.1342347090       -6.7337859497       -2.4504134189
 Na        6.1817726640        3.9598807910      -14.3824474928
