232

 C        -4.3230068984        4.1166902881      -23.6597096454
 C        -4.9287910416        2.8547473056      -22.9990203016
 O        -4.9216603147        2.5832960098      -21.8304953051
 C        -5.4635648304        1.7622228907      -24.0278851227
 C        -6.8738065178        1.3795772763      -23.6028359411
 O        -7.1102634783        0.3592402533      -23.0115730637
 C        -7.9862349996        2.1532136208      -24.2940424542
 C        -9.4487680560        1.8415271190      -23.9142443142
 C        -9.7662314639        2.6296170084      -22.6164408281
 O        -9.1104472038        3.5850226860      -22.2072210198
 C       -11.1229633155        2.2620463955      -21.7668433831
 C       -10.6288303357        0.9540913784      -20.9609443938
 O        -9.9256087821        0.1673363764      -21.5682383156
 C       -10.9457026700        0.5699945348      -19.4713405991
 C       -10.2547912742       -0.7823062108      -19.1824060425
 C        -8.7443072707       -0.6542813959      -19.3817630890
 O        -8.1106144123        0.4189950280      -19.2890916317
 C        -7.9202108387       -1.9578465525      -19.8134025594
 C        -6.3470228948       -1.5910846985      -19.5911496078
 O        -5.7359219456       -1.1277766935      -20.5497912469
 C        -5.7215882651       -1.5200266421      -18.2264019326
 C        -4.5509579157       -0.4118514025      -18.0356079388
 C        -5.1181609659        1.0155738164      -17.6441881443
 O        -5.7126313620        1.6801508245      -18.4657079913
 C        -4.7816233054        1.7051887249      -16.2460291015
 C        -5.6809211082        1.1906355426      -15.0130807402
 O        -5.8352590032       -0.0201551281      -14.9670999185
 C        -6.5006239520        1.9909309067      -14.0152300973
 C        -6.4747464631        1.2192608042      -12.6335834816
 C        -5.0511447270        1.3209328688      -12.1169813445
 O        -4.2114271249        1.9132928357      -12.7677450926
 C        -4.6851022510        0.6054679529      -10.7589988718
 C        -3.2218640946        0.0313444995      -10.7424304920
 O        -2.4398615229        0.4163094414       -9.8968628640
 C        -2.6257621090       -0.8660843413      -11.8838857628
 C        -1.4575262674       -1.7635990955      -11.4257699095
 C        -1.9262406308       -3.0223053212      -10.5305812137
 O        -3.0756971377       -2.9647880230      -10.1715287522
 C        -0.9806908312       -4.2419954939      -10.2756240603
 C        -0.1079580628       -3.7463830249       -9.0339504759
 O        -0.2578287008       -2.6677670061       -8.4295842955
 C         0.9002591923       -4.7378657650       -8.4934071496
 C         1.8873269947       -4.0912078386       -7.5258288593
 C         2.3500190803       -4.8759837700       -6.2275731574
 O         1.6982333805       -5.8362504056       -5.8532895331
 C         3.5869622528       -4.5476110089       -5.4578200006
 C         3.4588986115       -2.9498268877       -5.3136797477
 O         3.8479116536       -2.2587451991       -6.2274932948
 C         2.4479464954       -2.3562949065       -4.2981458558
 C         2.4628457669       -0.8367993593       -4.4601143770
 C         1.7667801952       -0.5569794068       -5.8317760479
 O         0.6703251997       -1.0962576957       -6.0093982442
 C         2.1233469647        0.6708704761       -6.7575846850
 C         0.9879741629        1.6622397619       -6.5688523803
 O        -0.0763639973        1.5029747801       -7.0818875185
 C         1.2757405172        2.8936500746       -5.6899721686
 C         0.1065835001        3.3502130176       -4.8096019425
 C        -0.3511144816        2.2149932180       -3.9220723184
 O         0.2570432065        1.1422197541       -3.9399701743
 C        -1.6338610844        2.3847655742       -2.9075811044
 C        -2.8084025478        1.6039574440       -3.6318399312
 O        -3.7236502814        2.3210663211       -4.0274670964
 C        -2.6174500668        0.1071739238       -3.8537732528
 C        -3.7676870610       -0.6157848098       -4.4873455349
 C        -3.2353133124       -1.8530954910       -5.2193602418
 O        -2.2731124839       -1.7948658283       -5.9858647021
 C        -3.9474242920       -3.2273626624       -4.6289287658
 C        -3.3244918003       -3.2541761650       -3.2343024499
 O        -3.8059424075       -2.4901096650       -2.4028914081
 C        -2.2643439524       -4.1874170427       -2.8113690287
 C        -1.9078667009       -4.1245234584       -1.2779398020
 C        -0.4440480317       -4.6852369000       -1.0410815420
 O         0.4268372851       -3.8559200895       -1.1610153967
 C        -0.2332242598       -6.0963713999       -0.5948107538
 C        -0.9542142591       -6.4334017110        0.8736482677
 O        -1.4171217058       -5.4921243543        1.5269971725
 C        -1.0764929762       -7.8793562052        1.1721934849
 C        -2.4742795212       -8.2419717509        1.6906895337
 C        -2.3976380646       -9.2930076917        2.8262198566
 O        -1.5416856364       -9.3404311126        3.6462008434
 C        -3.6948391041      -10.2317448584        3.0334424576
 C        -4.9591841788       -9.2097673364        3.2580498781
 O        -5.7876904099       -9.0324691254        2.4288326169
 C        -4.9012441148       -8.3527144324        4.5098133512
 C        -3.9055462308      -11.0947659404        1.7680258187
 C        -3.3938705969      -11.1729554305        4.1652619944
 C        -0.9521973089       -6.9824574315       -1.6004527663
 C         1.2551679102       -6.4538742606       -0.4345521882
 C        -5.4898122677       -3.2894228867       -4.6437036633
 C        -3.3728669412       -4.4234622132       -5.4761523432
 C        -1.3222320569        1.6121468788       -1.5988620091
 C        -1.9551609486        3.8327696786       -2.6471613096
 C         3.5390443101        1.0606449540       -6.4640935972
 C         2.0108853779        0.0577169725       -8.1874259893
 C         3.5877009067       -5.4692691364       -4.1808753265
 C         4.7720125149       -4.9271499403       -6.4478600628
 C        -1.6502555176       -5.5007925041       -9.9013624650
 C        -0.2040494553       -4.5343038863      -11.5017839395
 C        -4.8938183085        1.7536411079       -9.6821344559
 C        -5.7279856085       -0.6280886461      -10.3944679768
 C        -3.3054445268        1.5111790634      -15.9688585027
 C        -5.0942296866        3.2373698411      -16.4557286944
 C        -8.3246954524       -3.1490800756      -18.9193439723
 C        -8.2116771930       -2.3182077404      -21.3003578258
 C       -11.4815201056        3.4328441007      -20.8329197639
 C       -12.2454161588        1.9064065204      -22.7756841616
 C        -5.3976870900        2.1252563336      -25.5076095472
 C        -4.4190223945        0.6120260077      -23.8239883751
 H        -5.1134247075        4.7522445982      -24.0464522956
 H        -3.9285463893        3.7393379211      -24.5726798238
 H        -3.5918104285        4.7002139678      -23.1931628163
 H        -7.8831922003        1.8260139639      -25.3011998189
 H        -7.8292071050        3.2092443652      -24.2688092913
 H        -9.5533908118        0.8005830881      -23.8279328670
 H       -10.1489254497        2.2060882187      -24.7004656242
 H       -11.9955409247        0.2273359746      -19.5373242778
 H       -10.7293160914        1.3665058420      -18.7314020601
 H       -10.6994762301       -1.4538635356      -19.9005765376
 H       -10.4884811117       -0.9626897225      -18.1374345507
 H        -5.3738787036       -2.5393263224      -17.8200701811
 H        -6.6078720018       -1.1189621964      -17.5872008580
 H        -3.8238624604       -0.3074805431      -18.8924200838
 H        -3.9717141849       -0.7999897296      -17.2374426079
 H        -7.5259840304        1.8427731678      -14.3088666259
 H        -6.3473285226        3.1235945340      -13.9869286503
 H        -6.6888478180        0.1881177891      -12.9107285161
 H        -7.2069716335        1.6086922053      -11.8891085612
 H        -2.2775328556       -0.1082255420      -12.6085146437
 H        -3.4821126878       -1.3918139119      -12.3456418343
 H        -0.7832790377       -1.1495607643      -10.8319770038
 H        -0.8041547171       -1.9891982717      -12.3187501314
 H         1.4503259617       -5.3141562688       -9.3402852211
 H         0.3975198436       -5.6261475813       -7.9719067721
 H         1.5916586602       -3.0974098142       -7.1915860067
 H         2.7963390102       -3.8131986676       -8.1317681627
 H         2.7226538860       -2.7982449279       -3.3345786511
 H         1.4463361957       -2.7476765175       -4.5097567474
 H         3.5537102194       -0.5913854304       -4.4563461024
 H         1.9564540235       -0.2666142578       -3.7064935105
 H         1.7637618394        3.8177483718       -6.2610810713
 H         2.0580286981        2.5561316230       -5.0439885705
 H        -0.6756499009        3.9056450420       -5.3199269327
 H         0.5576473984        4.1256985828       -4.1148932378
 H        -2.2862002401       -0.3887047479       -2.9534679095
 H        -1.7053895664       -0.0634206371       -4.4962603196
 H        -4.1612261812        0.0499583409       -5.2364021164
 H        -4.5434355549       -0.8131391341       -3.7652400557
 H        -1.3813627326       -4.1357916900       -3.4762601889
 H        -2.7193015049       -5.1748456930       -3.0419860209
 H        -2.5861745680       -4.9027982524       -0.7570859114
 H        -2.1316554203       -3.1564269602       -0.8894568184
 H        -0.3559897965       -8.0563367460        2.0480660664
 H        -0.6184803138       -8.6705780942        0.5419220222
 H        -3.0932516301       -8.4728932696        0.8859436611
 H        -2.8930524606       -7.3379250221        2.1886004182
 H        -4.3645523817       -8.6912487047        5.3538431309
 H        -5.9714835900       -8.2810460488        4.8113285163
 H        -4.6284627464       -7.3129988906        4.3401177870
 H        -4.8986996539      -11.4524760566        1.5847264543
 H        -3.2366590715      -11.9755970139        1.6902441336
 H        -3.5523253555      -10.4731148125        0.9212527936
 H        -4.0609501706      -11.0964462760        5.0622705523
 H        -2.3884926087      -10.9978564003        4.5803805787
 H        -3.3601553304      -12.2412889836        3.8873583334
 H        -0.4543658354       -7.8374146995       -1.9981795367
 H        -1.0105564131       -6.5442353176       -2.6504827278
 H        -1.9336664536       -7.1794036230       -1.3148216322
 H         1.7803478254       -5.6926264398       -1.0673299452
 H         1.4740801104       -7.4792987660       -0.8138241113
 H         1.6526982447       -6.3513005461        0.5689409970
 H        -5.9657311252       -2.3778638342       -4.3313664231
 H        -5.8949346110       -4.0961531173       -3.9918197912
 H        -5.8532028284       -3.6081615171       -5.5615150792
 H        -3.6731958901       -5.4026389463       -5.0053998417
 H        -2.3085012942       -4.4390588796       -5.5177913428
 H        -3.7511782626       -4.4388978926       -6.5454664608
 H        -2.2567247793        1.6237377738       -1.1194300386
 H        -0.5224534646        2.1379282694       -1.0884337594
 H        -0.8818214042        0.6559259546       -1.8444723274
 H        -2.5897639084        4.2381278245       -3.4882390243
 H        -0.9730600422        4.2865621636       -2.3858137131
 H        -2.6595080758        3.9181677342       -1.8543389892
 H         4.0792300415        1.6901417248       -7.1774414158
 H         4.2032939638        0.2698486462       -6.3667825677
 H         3.7131521276        1.5444460316       -5.5417827165
 H         0.9869232217       -0.0229422389       -8.5795798832
 H         2.5234652770       -0.8707114789       -8.2581852991
 H         2.4318195848        0.7081274858       -8.9624832622
 H         3.3585281735       -6.5239123181       -4.3081842056
 H         2.7452546989       -5.1627286736       -3.5964463432
 H         4.4449243873       -5.2973693509       -3.5481308314
 H         4.8748570779       -4.2478612869       -7.2981186010
 H         4.8137000624       -5.8913054211       -6.6989923055
 H         5.6780443102       -4.6937934594       -5.8667546579
 H        -0.8872224455       -6.1418670757       -9.4388466423
 H        -2.0538233629       -5.9860109235      -10.7806281636
 H        -2.3904295989       -5.3814640118       -9.1754654419
 H         0.6079033749       -5.2017314001      -11.2642361915
 H         0.0910383977       -3.6178501822      -12.0462017554
 H        -0.6594736135       -5.0455411895      -12.2920977774
 H        -3.8645769822        2.1478796219       -9.5098568504
 H        -5.3626868789        1.3477045898       -8.8313344159
 H        -5.5128007288        2.5008193664      -10.1149472394
 H        -5.2433174223       -1.1432080678       -9.6092837008
 H        -5.7052238288       -1.2007508931      -11.3051371876
 H        -6.6720595286       -0.1808761281      -10.1040494022
 H        -3.1009371722        1.7246316317      -14.9682752304
 H        -2.6815574758        2.0796968055      -16.6115894796
 H        -2.9041768933        0.4465381850      -16.1231016333
 H        -4.6535445418        3.9253796255      -15.5976665370
 H        -6.1915734327        3.4829972218      -16.4558709816
 H        -4.6834084013        3.4815467305      -17.4465419578
 H        -7.7929327215       -4.0773587387      -19.1690699112
 H        -9.3313967482       -3.3443885565      -18.8116965300
 H        -8.0615078686       -2.8529733840      -17.8053685828
 H        -7.6262831102       -3.1724004890      -21.5293701899
 H        -7.9820131361       -1.4846438781      -22.0418909221
 H        -9.2136928340       -2.6149310094      -21.4766408076
 H       -10.5263266677        3.9175040968      -20.7059931825
 H       -11.9744104154        3.0904881349      -19.8833092750
 H       -12.2525662174        4.2195206583      -21.2040189234
 H       -12.4068067198        2.5514565428      -23.6023323346
 H       -13.2043325284        1.8599738035      -22.2976024981
 H       -11.9777855946        1.0325172508      -23.4190583873
 H        -5.8950824872        1.3087368057      -26.0416009577
 H        -4.3703542964        2.2113120479      -25.7441622496
 H        -5.8691910289        3.1368241005      -25.7146957926
 H        -4.6596604268        0.1956211263      -22.8442252200
 H        -3.4146613915        0.8621233305      -24.1533192131
 H        -4.7079836157       -0.1485652614      -24.4838957317
 Na       -6.1477473451        1.0944225129      -20.6034780382
 Na       -1.0812842308       -0.5952676038       -7.6092445139
