232

 C        -4.3549804924        4.0517393792      -23.4087885206
 C        -4.9668380825        2.7998927762      -23.0401438926
 O        -5.2413846590        2.5841568313      -21.8978948881
 C        -5.4465084178        1.7363877789      -24.1075413134
 C        -6.9925114628        1.5089650452      -23.6683131210
 O        -7.2502412709        0.6685232612      -22.8255120629
 C        -8.1053748445        2.3049153298      -24.3902305828
 C        -9.5349865013        1.9694309134      -23.8160260459
 C        -9.9555829119        2.6662336844      -22.5599267075
 O        -9.4233520084        3.7393407412      -22.2729735211
 C       -11.2008849420        2.1263777811      -21.7333504237
 C       -10.7014478123        0.8944776955      -20.9946452224
 O       -10.3710113002       -0.0990221360      -21.6024835651
 C       -10.5947750912        0.8992540959      -19.4516190496
 C       -10.0980191871       -0.3468266963      -18.8649364314
 C        -8.6511440360       -0.5270686002      -19.4543138537
 O        -8.1067816622        0.5228848451      -19.6977468489
 C        -7.8203170138       -1.8561974141      -19.7858930228
 C        -6.3546579163       -1.5382745412      -19.4631806578
 O        -5.6686378383       -1.3731986800      -20.4639588911
 C        -6.0011029093       -1.5237213743      -17.9483457155
 C        -4.7816602136       -0.6528732801      -17.6782400282
 C        -5.0647170896        0.8870073057      -17.6302888916
 O        -5.6338439490        1.4267836011      -18.5872081463
 C        -4.7857748925        1.6012751039      -16.3158701425
 C        -5.4687251624        0.8646526217      -15.0503175809
 O        -5.2732787441       -0.2974028529      -14.8749045248
 C        -6.3506936366        1.6933839531      -14.0545781525
 C        -6.2962226347        1.3555716254      -12.6026269496
 C        -4.8755698853        1.3720858927      -12.0209690680
 O        -3.9657220482        1.8863197845      -12.6392414071
 C        -4.7593131935        0.7027667201      -10.6111992024
 C        -3.3692330255        0.0754499485      -10.2919680724
 O        -2.8489581619        0.3200377761       -9.2120262492
 C        -2.7892941075       -0.7185188746      -11.4936713710
 C        -1.6159873739       -1.6671515820      -11.2290789416
 C        -2.0995400273       -2.9855963851      -10.5422061429
 O        -3.2953393781       -3.2060721964      -10.4142357575
 C        -1.1454826752       -4.1642778502      -10.2785459741
 C        -0.1718503712       -3.6640628392       -9.0222262075
 O        -0.1403352998       -2.5023083564       -8.5966251520
 C         0.6799623470       -4.8734943396       -8.5533229333
 C         1.8894484850       -4.3479176404       -7.6974247588
 C         2.1023116734       -5.0280217442       -6.2452165541
 O         1.2565210498       -5.8003627120       -5.7984687653
 C         3.4198173805       -4.6011701280       -5.4421124376
 C         3.5329437808       -3.0596103447       -5.3800736370
 O         4.0065894854       -2.4637141332       -6.2890497954
 C         2.7460773753       -2.3872908891       -4.3492672053
 C         2.4231617791       -0.8321941098       -4.5313422926
 C         1.7288277940       -0.4581282592       -5.7742475136
 O         0.7833805062       -1.0862202683       -6.2169196914
 C         2.1448339629        0.7183243995       -6.6704551510
 C         0.9591873706        1.8087756582       -6.4382062999
 O        -0.0770815123        1.5256839430       -7.0389486938
 C         1.1683812581        3.1445080321       -5.7697667859
 C        -0.1541598584        3.5065770698       -5.0450452537
 C        -0.4360506285        2.4547510566       -3.9630756013
 O         0.3840416443        1.5385839949       -3.8401252241
 C        -1.5813292194        2.5801460045       -2.9564028900
 C        -2.7930827327        1.6938048471       -3.5476015359
 O        -3.8284021335        2.3002131432       -3.8077038032
 C        -2.5164148724        0.1785439842       -3.7530569283
 C        -3.5811056810       -0.3893155505       -4.6890495851
 C        -3.1394881484       -1.7796801427       -5.2774258536
 O        -2.4040211113       -1.9507855706       -6.2404222535
 C        -3.6570517334       -3.0800176757       -4.7161842654
 C        -3.3809564350       -3.2837055200       -3.0801325615
 O        -4.0069854431       -2.5881626757       -2.3089964089
 C        -2.3255933450       -4.3166852387       -2.5936534219
 C        -1.6900599228       -3.9997190274       -1.2230336693
 C        -0.3143994828       -4.7049417485       -0.9248513599
 O         0.6827359197       -4.0726788614       -0.9321110473
 C        -0.2410600734       -6.3590626324       -0.8110124704
 C        -0.8347305561       -6.6360302681        0.5679789080
 O        -1.3084748737       -5.6657330318        1.1884761751
 C        -0.8675667246       -8.0813729862        1.1220632956
 C        -2.2652002749       -8.4583973432        1.5953870714
 C        -2.2687750849       -9.3612802804        2.8977061736
 O        -1.4706707699       -9.3008712522        3.7884093347
 C        -3.5552508534      -10.2939527235        2.9555353165
 C        -4.7385331656       -9.2330563391        2.8558721566
 O        -5.3560085676       -9.0111983550        1.8723555321
 C        -4.9562148802       -8.3759802779        4.1844651273
 C        -3.4980213584      -11.3033039474        1.7609790011
 C        -3.4763977165      -11.1332809328        4.2265483850
 C        -0.9469406408       -7.1276196919       -1.9688227974
 C         1.2508279572       -6.7287911586       -0.8631979158
 C        -5.2763758133       -3.1258089030       -4.7940507091
 C        -3.1032195626       -4.3278751262       -5.4933524964
 C        -1.0759229316        2.0123059252       -1.6158736223
 C        -2.1536864816        3.9836978886       -2.8250946280
 C         3.5426482515        1.2954552654       -6.2142611598
 C         2.0909390103        0.3557423384       -8.1782759313
 C         3.3499797430       -5.1390317386       -3.9946951716
 C         4.6147956579       -5.1930592923       -6.1929443574
 C        -1.9210624119       -5.3919873715       -9.8893461045
 C        -0.1530042140       -4.3672611642      -11.4498126750
 C        -4.9560185593        1.8693875218       -9.5102570809
 C        -5.6972456286       -0.5160239898      -10.3091429235
 C        -3.2671145550        1.3483095509      -15.9514619376
 C        -5.0634737921        3.1271972517      -16.3909298690
 C        -8.2233197353       -3.1796300344      -18.8936834817
 C        -8.0737538064       -2.2777850744      -21.2441473267
 C       -11.6766251747        3.2739277798      -20.7826005738
 C       -12.1647939397        1.5651573940      -22.6876413855
 C        -5.1593939897        2.0987165317      -25.5262826286
 C        -4.8095452750        0.3737521719      -23.8758669831
 H        -4.8042981720        4.5751027044      -24.3313205139
 H        -3.2627489878        4.1091295899      -23.4927720594
 H        -4.6766700299        4.7631042744      -22.6081503007
 H        -8.0846560529        2.0406314654      -25.4357595416
 H        -7.8948891801        3.4415319849      -24.2720701402
 H        -9.5358353494        0.8830220798      -23.6418727038
 H       -10.2544455058        2.1525993429      -24.6522995525
 H       -11.5672627040        1.1820044916      -19.1197324655
 H        -9.8655358166        1.6551127492      -19.1176765375
 H       -10.7760959996       -1.1544202062      -19.2275684850
 H       -10.0044633406       -0.2336419524      -17.7740133649
 H        -5.8242676157       -2.4846244703      -17.6550842242
 H        -6.8517550187       -1.0720392175      -17.4927963858
 H        -3.9609858483       -0.9223673712      -18.3942890297
 H        -4.4157798009       -0.9564461489      -16.7276270139
 H        -7.3442643060        1.5068833666      -14.4595070214
 H        -6.2979853810        2.8135601539      -14.0861589024
 H        -6.6251783708        0.3074647042      -12.5465892163
 H        -6.9045366611        2.0032765832      -11.9726919644
 H        -2.5310974302        0.1296056329      -12.1109369649
 H        -3.5953816434       -1.1668231515      -12.0382639298
 H        -0.8789849017       -1.1881500856      -10.5839856453
 H        -0.9838376695       -1.8989470725      -12.1847660247
 H         0.9579411679       -5.5402046568       -9.3857583656
 H         0.1751407817       -5.4546867827       -7.9612245213
 H         1.7874435356       -3.2804293010       -7.5033311881
 H         2.8361856459       -4.3862656339       -8.2842752308
 H         3.3398024790       -2.4402454084       -3.4398213592
 H         1.8798823470       -2.9815008548       -4.0375967354
 H         3.4404357496       -0.4036812158       -4.5026315997
 H         1.8439184680       -0.5211919080       -3.6639574594
 H         1.4458590667        3.8155720823       -6.6091477548
 H         1.9741073238        3.1355484242       -5.0830889184
 H        -1.0518077878        3.7718121731       -5.7036119590
 H         0.1537571052        4.3684784311       -4.4261499740
 H        -2.5541422987       -0.3463655559       -2.7673823484
 H        -1.5372999590       -0.0065218872       -4.0310359390
 H        -3.7440885210        0.4038465714       -5.4827995315
 H        -4.4885219388       -0.3950542208       -4.1026092869
 H        -1.6147966439       -4.5739632983       -3.3929587483
 H        -2.9938883281       -5.1226263748       -2.4591368768
 H        -2.5149945385       -4.1165911304       -0.5377902865
 H        -1.4583698072       -2.9160539984       -1.1298967136
 H        -0.1920011828       -8.2309602187        1.9386187802
 H        -0.4856926576       -8.7553861787        0.3856001125
 H        -2.9511157986       -8.8255585468        0.8043039726
 H        -2.6057959394       -7.4347044977        1.8377836366
 H        -4.7007464373       -8.9831800409        5.0217769221
 H        -5.9802656527       -8.0044364857        4.4153861102
 H        -4.3197635784       -7.4882777057        4.2903888817
 H        -4.1599400755      -12.1348141490        1.9232527831
 H        -2.5760717910      -11.8597366429        1.5167452330
 H        -3.7665317134      -10.7810020479        0.8552708266
 H        -4.2746671204      -11.8572233471        4.3582593802
 H        -3.5432327009      -10.5771732273        5.1516905424
 H        -2.5712068801      -11.6439855884        4.2649103243
 H        -1.1148335355       -8.1640923475       -1.8292490462
 H        -0.3555211908       -7.0441071491       -2.9966924097
 H        -1.9565590594       -6.8157633088       -2.1684959600
 H         1.7892121789       -6.1820358465       -1.5794974941
 H         1.3828631007       -7.8156652248       -0.9704227231
 H         1.6368425690       -6.4574601818        0.0819624003
 H        -5.8322444191       -2.8669960297       -3.8963848317
 H        -5.6095996859       -4.1537015656       -5.0654134014
 H        -5.6668251008       -2.5142858985       -5.6380158987
 H        -3.4380490806       -5.2896587427       -5.1441007581
 H        -2.0611339699       -4.4190007784       -5.5360571747
 H        -3.4089161160       -4.1151360850       -6.5471146263
 H        -1.8445125131        2.2192938998       -0.9040008084
 H        -0.0396562474        2.3663134891       -1.4143270336
 H        -0.9830886366        0.9468011442       -1.8750238682
 H        -2.2157936958        4.5597877845       -3.8155359228
 H        -1.4197299295        4.4701042790       -2.2037578955
 H        -3.0711167759        3.9699510288       -2.2226756390
 H         3.9303742218        2.2213566911       -6.6706042312
 H         4.4399080016        0.6649133800       -6.4422576147
 H         3.6734673300        1.5319163094       -5.1463665848
 H         1.1783491412        0.7893859658       -8.6723806118
 H         2.1560654688       -0.6719367010       -8.3920949155
 H         2.9189491856        0.7077405238       -8.7789903083
 H         3.5787060961       -6.1832321329       -3.8798164255
 H         2.3081294199       -5.1179092565       -3.5648034600
 H         4.0253650695       -4.5968211575       -3.3440563596
 H         4.8383880409       -4.8276891579       -7.2310800484
 H         4.4072048204       -6.2229155267       -6.2542560095
 H         5.5340739739       -4.9889191497       -5.5466978933
 H        -1.3636230891       -6.3600179074       -9.8873582614
 H        -2.7878186788       -5.4534206035      -10.4854320225
 H        -2.2636330632       -5.2136649175       -8.8627794752
 H         0.3560375850       -5.3489389396      -11.3997641985
 H         0.6495464562       -3.5570018870      -11.3356460013
 H        -0.4894716016       -4.1494047620      -12.5022415697
 H        -4.6594732338        2.8304817451       -9.9105100268
 H        -4.4016893464        1.4949245216       -8.6253743732
 H        -6.0263760689        1.8772672360       -9.2901058733
 H        -5.3899581627       -0.8556767355       -9.3274774301
 H        -5.3224196020       -1.2583749609      -10.9417869049
 H        -6.7328240347       -0.1269748682      -10.3473522687
 H        -2.8973538712        2.1833814360      -15.4024477549
 H        -2.6527012598        1.2659130965      -16.8746649949
 H        -2.9565551714        0.4861149639      -15.3310472788
 H        -4.7964797545        3.6329057677      -15.4176846345
 H        -6.0859680746        3.2926142742      -16.5272933193
 H        -4.4705249648        3.6284965877      -17.0724595828
 H        -7.4272284432       -3.8444492824      -18.7763091136
 H        -9.1336282673       -3.6780265422      -19.1374916226
 H        -8.3677653128       -2.8302546858      -17.7737421943
 H        -7.5174137098       -3.1037667305      -21.5454822671
 H        -7.8414843858       -1.4789613179      -21.9972247865
 H        -9.1349613942       -2.4810253489      -21.2860535918
 H       -10.9786943187        3.4508478926      -20.0500898629
 H       -12.6339455691        2.9653545793      -20.3976595172
 H       -11.7115035858        4.2798751008      -21.2401277950
 H       -12.5542764554        2.2896562618      -23.4228600238
 H       -13.0207371408        1.1902651322      -22.1719131968
 H       -11.7984127129        0.7680510244      -23.3445425539
 H        -5.2915909819        1.1572433228      -26.1152299204
 H        -4.1022936293        2.3623306392      -25.6587404255
 H        -5.8560837035        2.8256536351      -25.9432894296
 H        -5.1148799432        0.0506261227      -22.8469879302
 H        -3.7621952236        0.5996992647      -23.9509278434
 H        -4.9661765839       -0.3893178618      -24.6398255636
 Na       -6.3063229164        0.9709679409      -20.9634682329
 Na       -1.1105080628       -0.4790555585       -7.6179107049
